data/pglib_opf_case3120sp_k_storage.m
%%%%%%%%%%%%%%%%%%%%%%%%%%%%%%%%%%%%%%%%%%%%%%%%%%%%%%%%%%%%%%%%%%%%%%%%%%%
%%%%                                                                  %%%%%
%%%%    IEEE PES Power Grid Library - Optimal Power Flow - v23.07     %%%%%
%%%%          (https://github.com/power-grid-lib/pglib-opf)           %%%%%
%%%%               Benchmark Group - Typical Operations               %%%%%
%%%%                         23 - July - 2023                         %%%%%
%%%%                                                                  %%%%%
%%%%%%%%%%%%%%%%%%%%%%%%%%%%%%%%%%%%%%%%%%%%%%%%%%%%%%%%%%%%%%%%%%%%%%%%%%%
%
%   Power flow data for Polish system - summer 2008 morning peak.
%   Please see CASEFORMAT for details on the case file format.
%
%   This case represents the Polish 400, 220 and 110 kV networks during
%   summer 2008 morning peak conditions.
%
%   Copyright (c) 2010 by Roman Korab <roman.korab@polsl.pl>
%   Licensed under the Creative Commons Attribution 4.0
%   International license, http://creativecommons.org/licenses/by/4.0/
%
% Modified to have additional storage capacity and increased gencost
function mpc = pglib_opf_case3120sp_k
mpc.version = '2';
mpc.baseMVA = 100.0;

%% bus data
%	bus_i	type	Pd	Qd	Gs	Bs	area	Vm	Va	baseKV	zone	Vmax	Vmin
mpc.bus = [
	1	 1	 0.0	 0.0	 0.0	 0.0	 1	    1.03000	    0.00000	 220.0	 1	    1.11000	    0.95000;
	2	 1	 0.0	 0.0	 0.0	 0.0	 1	    1.03000	    0.00000	 220.0	 1	    1.11000	    0.95000;
	3	 1	 0.0	 0.0	 0.0	 0.0	 1	    1.03000	    0.00000	 220.0	 1	    1.11000	    0.95000;
	4	 1	 0.0	 0.0	 0.0	 0.0	 1	    1.03000	    0.00000	 220.0	 1	    1.11000	    0.95000;
	5	 1	 0.0	 0.0	 0.0	 0.0	 1	    1.03000	    0.00000	 220.0	 1	    1.11000	    0.95000;
	6	 1	 0.0	 0.0	 0.0	 0.0	 1	    1.03000	    0.00000	 220.0	 1	    1.11000	    0.95000;
	7	 1	 0.0	 0.0	 0.0	 0.0	 1	    1.03000	    0.00000	 220.0	 1	    1.11000	    0.95000;
	8	 1	 0.0	 0.0	 0.0	 0.0	 1	    1.03000	    0.00000	 220.0	 1	    1.11000	    0.95000;
	9	 1	 0.0	 0.0	 0.0	 0.0	 1	    1.03000	    0.00000	 220.0	 1	    1.11000	    0.95000;
	10	 1	 0.0	 0.0	 0.0	 0.0	 1	    1.03000	    0.00000	 220.0	 1	    1.11000	    0.95000;
	11	 1	 0.0	 0.0	 0.0	 0.0	 1	    1.00000	    0.00000	 400.0	 1	    1.05000	    0.95000;
	12	 1	 0.0	 0.0	 0.0	 0.0	 1	    1.00000	    0.00000	 400.0	 1	    1.05000	    0.95000;
	13	 1	 0.0	 0.0	 0.0	 0.0	 1	    1.00000	    0.00000	 400.0	 1	    1.05000	    0.95000;
	14	 1	 0.0	 0.0	 0.0	 0.0	 1	    1.03000	    0.00000	 220.0	 1	    1.11000	    0.95000;
	15	 1	 0.0	 0.0	 0.0	 0.0	 1	    1.03000	    0.00000	 220.0	 1	    1.11000	    0.95000;
	16	 1	 0.0	 0.0	 0.0	 0.0	 1	    1.03000	    0.00000	 220.0	 1	    1.11000	    0.95000;
	17	 1	 0.0	 0.0	 0.0	 0.0	 1	    1.03000	    0.00000	 220.0	 1	    1.11000	    0.95000;
	18	 1	 0.0	 0.0	 0.0	 0.0	 1	    1.00000	    0.00000	 400.0	 1	    1.05000	    0.95000;
	19	 1	 0.0	 0.0	 0.0	 0.0	 1	    1.00000	    0.00000	 400.0	 1	    1.05000	    0.95000;
	20	 1	 0.0	 0.0	 0.0	 0.0	 1	    1.00000	    0.00000	 400.0	 1	    1.05000	    0.95000;
	21	 1	 0.0	 0.0	 0.0	 0.0	 1	    1.00000	    0.00000	 400.0	 1	    1.05000	    0.95000;
	22	 2	 10.0	 20.0	 0.0	 0.0	 1	    1.03000	    0.00000	 220.0	 1	    1.11000	    0.95000;
	23	 2	 10.0	 20.0	 0.0	 0.0	 1	    1.03000	    0.00000	 220.0	 1	    1.11000	    0.95000;
	24	 1	 0.0	 0.0	 0.0	 0.0	 1	    1.03000	    0.00000	 220.0	 1	    1.11000	    0.95000;
	25	 1	 0.0	 0.0	 0.0	 0.0	 1	    1.03000	    0.00000	 220.0	 1	    1.11000	    0.95000;
	26	 1	 0.0	 0.0	 0.0	 0.0	 1	    1.03000	    0.00000	 220.0	 1	    1.11000	    0.95000;
	27	 1	 0.0	 0.0	 0.0	 0.0	 1	    1.03000	    0.00000	 220.0	 1	    1.11000	    0.95000;
	28	 1	 0.0	 0.0	 0.0	 0.0	 1	    1.03000	    0.00000	 220.0	 1	    1.11000	    0.95000;
	29	 1	 0.0	 0.0	 0.0	 0.0	 1	    1.03000	    0.00000	 220.0	 1	    1.11000	    0.95000;
	30	 1	 0.0	 0.0	 0.0	 0.0	 1	    1.03000	    0.00000	 220.0	 1	    1.11000	    0.95000;
	31	 1	 0.0	 0.0	 0.0	 0.0	 1	    1.03000	    0.00000	 220.0	 1	    1.11000	    0.95000;
	32	 1	 0.0	 0.0	 0.0	 0.0	 1	    1.00000	    0.00000	 400.0	 1	    1.05000	    0.95000;
	33	 1	 0.0	 0.0	 0.0	 0.0	 1	    1.00000	    0.00000	 400.0	 1	    1.05000	    0.95000;
	34	 1	 0.0	 0.0	 0.0	 0.0	 1	    1.00000	    0.00000	 400.0	 1	    1.05000	    0.95000;
	35	 2	 32.16	 52.07	 0.0	 0.0	 1	    1.03000	    0.00000	 220.0	 1	    1.11000	    0.95000;
	36	 2	 46.36	 92.07	 0.0	 0.0	 1	    1.03000	    0.00000	 220.0	 1	    1.11000	    0.95000;
	37	 3	 60.0	 120.0	 0.0	 0.0	 1	    1.00000	    0.00000	 400.0	 1	    1.05000	    0.95000;
	38	 2	 60.0	 120.0	 0.0	 0.0	 1	    1.00000	    0.00000	 400.0	 1	    1.05000	    0.95000;
	39	 1	 0.0	 0.0	 0.0	 0.0	 1	    1.03000	    0.00000	 220.0	 1	    1.11000	    0.95000;
	40	 1	 0.0	 0.0	 0.0	 0.0	 1	    1.03000	    0.00000	 220.0	 1	    1.11000	    0.95000;
	41	 1	 0.0	 0.0	 0.0	 0.0	 1	    1.00000	    0.00000	 400.0	 1	    1.05000	    0.95000;
	42	 1	 0.0	 0.0	 0.0	 0.0	 1	    1.00000	    0.00000	 400.0	 1	    1.05000	    0.95000;
	43	 1	 0.0	 0.0	 0.0	 0.0	 1	    1.03000	    0.00000	 220.0	 1	    1.11000	    0.95000;
	44	 1	 0.0	 0.0	 0.0	 0.0	 1	    1.00000	    0.00000	 400.0	 1	    1.05000	    0.95000;
	45	 1	 0.0	 0.0	 0.0	 0.0	 1	    1.03000	    0.00000	 220.0	 1	    1.11000	    0.95000;
	46	 1	 0.0	 0.0	 0.0	 0.0	 1	    1.03000	    0.00000	 220.0	 1	    1.11000	    0.95000;
	47	 1	 0.0	 0.0	 0.0	 0.0	 1	    1.03000	    0.00000	 220.0	 2	    1.11000	    0.95000;
	48	 1	 0.0	 0.0	 0.0	 0.0	 1	    1.03000	    0.00000	 220.0	 2	    1.11000	    0.95000;
	49	 1	 0.0	 0.0	 0.0	 0.0	 1	    1.03000	    0.00000	 220.0	 2	    1.11000	    0.95000;
	50	 1	 0.0	 0.0	 0.0	 0.0	 1	    1.03000	    0.00000	 220.0	 2	    1.11000	    0.95000;
	51	 1	 0.0	 0.0	 0.0	 0.0	 1	    1.03000	    0.00000	 220.0	 2	    1.11000	    0.95000;
	52	 1	 3.97	 1.0	 0.0	 0.0	 1	    1.03000	    0.00000	 220.0	 2	    1.11000	    0.95000;
	53	 1	 0.0	 0.0	 0.0	 0.0	 1	    1.03000	    0.00000	 220.0	 2	    1.11000	    0.95000;
	54	 1	 0.0	 0.0	 0.0	 0.0	 1	    1.00000	    0.00000	 400.0	 2	    1.05000	    0.95000;
	55	 2	 13.0	 30.0	 0.0	 0.0	 1	    1.03000	    0.00000	 220.0	 2	    1.11000	    0.95000;
	56	 2	 39.35	 90.07	 0.0	 0.0	 1	    1.03000	    0.00000	 220.0	 2	    1.11000	    0.95000;
	57	 2	 26.0	 60.0	 0.0	 0.0	 1	    1.03000	    0.00000	 220.0	 2	    1.11000	    0.95000;
	58	 2	 26.0	 50.0	 0.0	 0.0	 1	    1.00000	    0.00000	 400.0	 2	    1.05000	    0.95000;
	59	 2	 26.0	 50.0	 0.0	 0.0	 1	    1.00000	    0.00000	 400.0	 2	    1.05000	    0.95000;
	60	 1	 0.0	 0.0	 0.0	 0.0	 1	    1.03000	    0.00000	 220.0	 2	    1.11000	    0.95000;
	61	 1	 0.0	 0.0	 0.0	 0.0	 1	    1.00000	    0.00000	 400.0	 2	    1.05000	    0.95000;
	62	 1	 0.0	 0.0	 0.0	 0.0	 1	    1.00000	    0.00000	 400.0	 2	    1.05000	    0.95000;
	63	 1	 0.0	 0.0	 0.0	 0.0	 1	    1.00000	    0.00000	 400.0	 2	    1.05000	    0.95000;
	64	 1	 0.0	 0.0	 0.0	 0.0	 1	    1.03000	    0.00000	 220.0	 2	    1.11000	    0.95000;
	65	 1	 0.0	 0.0	 0.0	 0.0	 1	    1.03000	    0.00000	 220.0	 2	    1.11000	    0.95000;
	66	 1	 0.0	 0.0	 0.0	 0.0	 1	    1.00000	    0.00000	 400.0	 2	    1.05000	    0.95000;
	67	 1	 0.0	 0.0	 0.0	 0.0	 1	    1.00000	    0.00000	 400.0	 2	    1.05000	    0.95000;
	68	 2	 13.0	 30.0	 0.0	 0.0	 1	    1.03000	    0.00000	 220.0	 2	    1.11000	    0.95000;
	69	 2	 26.0	 60.0	 0.0	 0.0	 1	    1.03000	    0.00000	 220.0	 2	    1.11000	    0.95000;
	70	 2	 0.0	 2.25	 0.0	 0.0	 1	    1.00000	    0.00000	 400.0	 2	    1.05000	    0.95000;
	71	 2	 26.0	 60.0	 0.0	 0.0	 1	    1.00000	    0.00000	 400.0	 2	    1.05000	    0.95000;
	72	 1	 0.0	 0.0	 0.0	 0.0	 1	    1.03000	    0.00000	 220.0	 2	    1.11000	    0.95000;
	73	 1	 0.0	 0.0	 0.0	 0.0	 1	    1.03000	    0.00000	 220.0	 2	    1.11000	    0.95000;
	74	 1	 0.0	 0.0	 0.0	 0.0	 1	    1.03000	    0.00000	 220.0	 2	    1.11000	    0.95000;
	75	 1	 0.0	 0.0	 0.0	 0.0	 1	    1.03000	    0.00000	 220.0	 2	    1.11000	    0.95000;
	76	 1	 0.0	 0.0	 0.0	 0.0	 1	    1.03000	    0.00000	 220.0	 2	    1.11000	    0.95000;
	77	 1	 0.0	 0.0	 0.0	 0.0	 1	    1.03000	    0.00000	 220.0	 2	    1.11000	    0.95000;
	78	 1	 0.0	 0.0	 0.0	 0.0	 1	    1.00000	    0.00000	 400.0	 2	    1.05000	    0.95000;
	79	 1	 0.0	 0.0	 0.0	 0.0	 1	    1.00000	    0.00000	 400.0	 2	    1.05000	    0.95000;
	80	 1	 0.0	 0.0	 0.0	 0.0	 1	    1.03000	    0.00000	 220.0	 2	    1.11000	    0.95000;
	81	 1	 0.0	 0.0	 0.0	 0.0	 1	    1.03000	    0.00000	 220.0	 2	    1.11000	    0.95000;
	82	 1	 0.0	 0.0	 0.0	 0.0	 1	    1.03000	    0.00000	 220.0	 2	    1.11000	    0.95000;
	83	 1	 0.0	 0.0	 0.0	 0.0	 1	    1.03000	    0.00000	 220.0	 3	    1.11000	    0.95000;
	84	 1	 6.41	 2.01	 0.0	 0.0	 1	    1.03000	    0.00000	 220.0	 3	    1.11000	    0.95000;
	85	 1	 13.89	 5.02	 0.0	 0.0	 1	    1.03000	    0.00000	 220.0	 3	    1.11000	    0.95000;
	86	 1	 0.0	 0.0	 0.0	 0.0	 1	    1.03000	    0.00000	 220.0	 3	    1.11000	    0.95000;
	87	 1	 0.0	 0.0	 0.0	 0.0	 1	    1.03000	    0.00000	 220.0	 3	    1.11000	    0.95000;
	88	 1	 0.0	 0.0	 0.0	 0.0	 1	    1.03000	    0.00000	 220.0	 3	    1.11000	    0.95000;
	89	 1	 0.0	 0.0	 0.0	 0.0	 1	    1.03000	    0.00000	 220.0	 3	    1.11000	    0.95000;
	90	 1	 0.0	 0.0	 0.0	 0.0	 1	    1.03000	    0.00000	 220.0	 3	    1.11000	    0.95000;
	91	 1	 0.0	 0.0	 0.0	 0.0	 1	    1.03000	    0.00000	 220.0	 3	    1.11000	    0.95000;
	92	 2	 28.0	 70.0	 0.0	 0.0	 1	    1.03000	    0.00000	 220.0	 3	    1.11000	    0.95000;
	93	 2	 28.0	 68.0	 0.0	 0.0	 1	    1.03000	    0.00000	 220.0	 3	    1.11000	    0.95000;
	94	 1	 2.78	 1.91	 0.0	 0.0	 1	    1.03000	    0.00000	 220.0	 3	    1.11000	    0.95000;
	95	 1	 0.0	 0.0	 0.0	 0.0	 1	    1.03000	    0.00000	 220.0	 3	    1.11000	    0.95000;
	96	 2	 32.0	 142.0	 0.0	 0.0	 1	    1.00000	    0.00000	 400.0	 3	    1.05000	    0.95000;
	97	 1	 0.0	 0.0	 0.0	 0.0	 1	    1.00000	    0.00000	 400.0	 3	    1.05000	    0.95000;
	98	 1	 0.0	 0.0	 0.0	 0.0	 1	    1.03000	    0.00000	 220.0	 3	    1.11000	    0.95000;
	99	 1	 0.0	 0.0	 0.0	 0.0	 1	    1.03000	    0.00000	 220.0	 3	    1.11000	    0.95000;
	100	 1	 0.0	 0.0	 0.0	 0.0	 1	    1.03000	    0.00000	 220.0	 3	    1.11000	    0.95000;
	101	 1	 38.8	 -2.7	 0.0	 0.0	 1	    1.03000	    0.00000	 220.0	 3	    1.11000	    0.95000;
	102	 1	 0.0	 0.0	 0.0	 0.0	 1	    1.03000	    0.00000	 220.0	 3	    1.11000	    0.95000;
	103	 1	 0.0	 0.0	 0.0	 0.0	 1	    1.03000	    0.00000	 220.0	 3	    1.11000	    0.95000;
	104	 1	 0.0	 0.0	 0.0	 0.0	 1	    1.03000	    0.00000	 220.0	 3	    1.11000	    0.95000;
	105	 1	 0.0	 0.0	 0.0	 0.0	 1	    1.03000	    0.00000	 220.0	 3	    1.11000	    0.95000;
	106	 1	 0.0	 0.0	 0.0	 0.0	 1	    1.03000	    0.00000	 220.0	 3	    1.11000	    0.95000;
	107	 1	 0.0	 0.0	 0.0	 0.0	 1	    1.00000	    0.00000	 400.0	 3	    1.05000	    0.95000;
	108	 1	 0.0	 0.0	 0.0	 0.0	 1	    1.00000	    0.00000	 400.0	 3	    1.05000	    0.95000;
	109	 1	 0.0	 0.0	 0.0	 0.0	 1	    1.03000	    0.00000	 220.0	 3	    1.11000	    0.95000;
	110	 1	 0.0	 0.0	 0.0	 0.0	 1	    1.03000	    0.00000	 220.0	 3	    1.11000	    0.95000;
	111	 1	 0.0	 0.0	 0.0	 0.0	 1	    1.03000	    0.00000	 220.0	 3	    1.11000	    0.95000;
	112	 1	 0.0	 0.0	 0.0	 0.0	 1	    1.03000	    0.00000	 220.0	 3	    1.11000	    0.95000;
	113	 2	 38.41	 12.71	 0.0	 0.0	 1	    1.03000	    0.00000	 220.0	 3	    1.11000	    0.95000;
	114	 1	 0.0	 0.0	 0.0	 0.0	 1	    1.03000	    0.00000	 220.0	 3	    1.11000	    0.95000;
	115	 1	 0.0	 0.0	 0.0	 0.0	 1	    1.03000	    0.00000	 220.0	 3	    1.11000	    0.95000;
	116	 1	 0.0	 0.0	 0.0	 0.0	 1	    1.03000	    0.00000	 220.0	 3	    1.11000	    0.95000;
	117	 1	 0.0	 0.0	 0.0	 0.0	 1	    1.03000	    0.00000	 220.0	 3	    1.11000	    0.95000;
	118	 1	 0.0	 0.0	 0.0	 0.0	 1	    1.03000	    0.00000	 220.0	 3	    1.11000	    0.95000;
	119	 2	 10.0	 44.0	 0.0	 0.0	 1	    1.03000	    0.00000	 220.0	 3	    1.11000	    0.95000;
	120	 2	 10.0	 44.0	 0.0	 0.0	 1	    1.03000	    0.00000	 220.0	 3	    1.11000	    0.95000;
	121	 2	 7.0	 18.0	 0.0	 0.0	 1	    1.03000	    0.00000	 220.0	 3	    1.11000	    0.95000;
	122	 2	 8.0	 21.0	 0.0	 0.0	 1	    1.03000	    0.00000	 220.0	 3	    1.11000	    0.95000;
	123	 1	 0.0	 0.0	 0.0	 0.0	 1	    1.03000	    0.00000	 220.0	 3	    1.11000	    0.95000;
	124	 1	 59.4	 11.61	 0.0	 0.0	 1	    1.03000	    0.00000	 220.0	 3	    1.11000	    0.95000;
	125	 1	 0.0	 0.0	 0.0	 0.0	 1	    1.03000	    0.00000	 220.0	 3	    1.11000	    0.95000;
	126	 1	 0.0	 0.0	 0.0	 0.0	 1	    1.03000	    0.00000	 220.0	 3	    1.11000	    0.95000;
	127	 1	 0.0	 0.0	 0.0	 0.0	 1	    1.03000	    0.00000	 220.0	 3	    1.11000	    0.95000;
	128	 1	 0.0	 0.0	 0.0	 0.0	 1	    1.03000	    0.00000	 220.0	 3	    1.11000	    0.95000;
	129	 1	 0.0	 0.0	 0.0	 0.0	 1	    1.03000	    0.00000	 220.0	 3	    1.11000	    0.95000;
	130	 1	 0.0	 0.0	 0.0	 0.0	 1	    1.00000	    0.00000	 400.0	 3	    1.05000	    0.95000;
	131	 1	 0.0	 0.0	 0.0	 0.0	 1	    1.00000	    0.00000	 400.0	 3	    1.05000	    0.95000;
	132	 2	 0.0	 1.78	 0.0	 0.0	 1	    1.03000	    0.00000	 220.0	 3	    1.11000	    0.95000;
	133	 2	 9.0	 20.0	 0.0	 0.0	 1	    1.03000	    0.00000	 220.0	 3	    1.11000	    0.95000;
	134	 2	 6.0	 15.0	 0.0	 0.0	 1	    1.03000	    0.00000	 220.0	 3	    1.11000	    0.95000;
	135	 1	 0.0	 0.0	 0.0	 0.0	 1	    1.03000	    0.00000	 220.0	 3	    1.11000	    0.95000;
	136	 1	 0.0	 0.0	 0.0	 0.0	 1	    1.00000	    0.00000	 400.0	 3	    1.05000	    0.95000;
	137	 1	 0.0	 0.0	 0.0	 0.0	 1	    1.00000	    0.00000	 400.0	 3	    1.05000	    0.95000;
	138	 1	 0.0	 0.0	 0.0	 0.0	 1	    1.00000	    0.00000	 400.0	 3	    1.05000	    0.95000;
	139	 1	 0.0	 0.0	 0.0	 0.0	 1	    1.00000	    0.00000	 400.0	 3	    1.05000	    0.95000;
	140	 1	 0.0	 0.0	 0.0	 0.0	 1	    1.03000	    0.00000	 220.0	 3	    1.11000	    0.95000;
	141	 1	 0.0	 0.0	 0.0	 0.0	 1	    1.03000	    0.00000	 220.0	 3	    1.11000	    0.95000;
	142	 2	 18.2	 37.21	 0.0	 0.0	 1	    1.03000	    0.00000	 220.0	 3	    1.11000	    0.95000;
	143	 2	 41.52	 73.01	 0.0	 0.0	 1	    1.03000	    0.00000	 220.0	 3	    1.11000	    0.95000;
	144	 2	 28.0	 66.0	 0.0	 0.0	 1	    1.00000	    0.00000	 400.0	 3	    1.05000	    0.95000;
	145	 1	 0.0	 0.0	 0.0	 0.0	 1	    1.00000	    0.00000	 400.0	 3	    1.05000	    0.95000;
	146	 1	 0.0	 0.0	 0.0	 0.0	 1	    1.03000	    0.00000	 220.0	 3	    1.11000	    0.95000;
	147	 1	 0.0	 0.0	 0.0	 0.0	 1	    1.03000	    0.00000	 220.0	 3	    1.11000	    0.95000;
	148	 1	 0.0	 0.0	 0.0	 0.0	 1	    1.03000	    0.00000	 220.0	 3	    1.11000	    0.95000;
	149	 1	 0.0	 0.0	 0.0	 0.0	 1	    1.03000	    0.00000	 220.0	 3	    1.11000	    0.95000;
	150	 2	 0.0	 -0.79	 0.0	 0.0	 1	    1.03000	    0.00000	 220.0	 3	    1.11000	    0.95000;
	151	 2	 0.0	 -0.79	 0.0	 0.0	 1	    1.03000	    0.00000	 220.0	 3	    1.11000	    0.95000;
	152	 2	 7.7	 20.0	 0.0	 0.0	 1	    1.03000	    0.00000	 220.0	 4	    1.11000	    0.95000;
	153	 2	 7.8	 20.0	 0.0	 0.0	 1	    1.03000	    0.00000	 220.0	 4	    1.11000	    0.95000;
	154	 1	 0.0	 0.0	 0.0	 0.0	 1	    1.03000	    0.00000	 220.0	 4	    1.11000	    0.95000;
	155	 1	 0.0	 0.0	 0.0	 0.0	 1	    1.03000	    0.00000	 220.0	 4	    1.11000	    0.95000;
	156	 1	 0.0	 0.0	 0.0	 0.0	 1	    1.03000	    0.00000	 220.0	 4	    1.11000	    0.95000;
	157	 1	 0.0	 0.0	 0.0	 0.0	 1	    1.03000	    0.00000	 220.0	 4	    1.11000	    0.95000;
	158	 1	 0.0	 0.0	 0.0	 0.0	 1	    1.03000	    0.00000	 220.0	 4	    1.11000	    0.95000;
	159	 1	 0.0	 0.0	 0.0	 0.0	 1	    1.00000	    0.00000	 400.0	 4	    1.05000	    0.95000;
	160	 1	 0.0	 0.0	 0.0	 0.0	 1	    1.00000	    0.00000	 400.0	 4	    1.05000	    0.95000;
	161	 1	 0.0	 0.0	 0.0	 0.0	 1	    1.03000	    0.00000	 220.0	 4	    1.11000	    0.95000;
	162	 1	 0.0	 0.0	 0.0	 0.0	 1	    1.03000	    0.00000	 220.0	 4	    1.11000	    0.95000;
	163	 1	 0.0	 0.0	 0.0	 0.0	 1	    1.03000	    0.00000	 220.0	 4	    1.11000	    0.95000;
	164	 1	 0.0	 0.0	 0.0	 0.0	 1	    1.03000	    0.00000	 220.0	 4	    1.11000	    0.95000;
	165	 1	 0.0	 0.0	 0.0	 0.0	 1	    1.03000	    0.00000	 220.0	 4	    1.11000	    0.95000;
	166	 1	 0.0	 0.0	 0.0	 0.0	 1	    1.03000	    0.00000	 220.0	 4	    1.11000	    0.95000;
	167	 2	 0.0	 -13.01	 0.0	 0.0	 1	    1.03000	    0.00000	 220.0	 4	    1.11000	    0.95000;
	168	 1	 0.0	 0.0	 0.0	 0.0	 1	    1.03000	    0.00000	 220.0	 4	    1.11000	    0.95000;
	169	 2	 12.0	 30.0	 0.0	 0.0	 1	    1.03000	    0.00000	 220.0	 4	    1.11000	    0.95000;
	170	 2	 19.91	 36.57	 0.0	 0.0	 1	    1.03000	    0.00000	 220.0	 4	    1.11000	    0.95000;
	171	 2	 12.0	 30.0	 0.0	 0.0	 1	    1.00000	    0.00000	 400.0	 4	    1.05000	    0.95000;
	172	 2	 12.0	 30.0	 0.0	 0.0	 1	    1.00000	    0.00000	 400.0	 4	    1.05000	    0.95000;
	173	 1	 0.0	 0.0	 0.0	 0.0	 1	    1.03000	    0.00000	 220.0	 4	    1.11000	    0.95000;
	174	 1	 0.0	 0.0	 0.0	 0.0	 1	    1.03000	    0.00000	 220.0	 4	    1.11000	    0.95000;
	175	 1	 0.0	 0.0	 0.0	 0.0	 1	    1.03000	    0.00000	 220.0	 4	    1.11000	    0.95000;
	176	 1	 0.0	 0.0	 0.0	 0.0	 1	    1.03000	    0.00000	 220.0	 4	    1.11000	    0.95000;
	177	 2	 30.5	 64.2	 0.0	 0.0	 1	    1.03000	    0.00000	 220.0	 4	    1.11000	    0.95000;
	178	 2	 58.9	 96.0	 0.0	 0.0	 1	    1.03000	    0.00000	 220.0	 4	    1.11000	    0.95000;
	179	 1	 0.0	 0.0	 0.0	 0.0	 1	    1.03000	    0.00000	 220.0	 4	    1.11000	    0.95000;
	180	 2	 26.5	 64.2	 0.0	 0.0	 1	    1.00000	    0.00000	 400.0	 4	    1.05000	    0.95000;
	181	 1	 0.0	 0.0	 0.0	 0.0	 1	    1.00000	    0.00000	 400.0	 4	    1.05000	    0.95000;
	182	 1	 0.0	 0.0	 0.0	 0.0	 1	    1.03000	    0.00000	 220.0	 4	    1.11000	    0.95000;
	183	 1	 0.0	 0.0	 0.0	 0.0	 1	    1.03000	    0.00000	 220.0	 4	    1.11000	    0.95000;
	184	 1	 0.0	 0.0	 0.0	 0.0	 1	    1.00000	    0.00000	 400.0	 4	    1.05000	    0.95000;
	185	 1	 0.0	 0.0	 0.0	 0.0	 1	    1.00000	    0.00000	 400.0	 4	    1.05000	    0.95000;
	186	 1	 0.0	 0.0	 0.0	 0.0	 1	    1.00000	    0.00000	 400.0	 4	    1.05000	    0.95000;
	187	 1	 0.0	 0.0	 0.0	 0.0	 1	    1.00000	    0.00000	 400.0	 4	    1.05000	    0.95000;
	188	 2	 12.0	 30.0	 0.0	 0.0	 1	    1.03000	    0.00000	 220.0	 4	    1.11000	    0.95000;
	189	 2	 23.8	 60.0	 0.0	 0.0	 1	    1.03000	    0.00000	 220.0	 4	    1.11000	    0.95000;
	190	 2	 38.0	 64.0	 0.0	 0.0	 1	    1.00000	    0.00000	 400.0	 4	    1.05000	    0.95000;
	191	 1	 0.0	 0.0	 0.0	 0.0	 1	    1.03000	    0.00000	 220.0	 4	    1.11000	    0.95000;
	192	 1	 0.0	 0.0	 0.0	 0.0	 1	    1.03000	    0.00000	 220.0	 4	    1.11000	    0.95000;
	193	 1	 0.0	 0.0	 0.0	 0.0	 1	    1.03000	    0.00000	 220.0	 4	    1.11000	    0.95000;
	194	 1	 0.0	 0.0	 0.0	 0.0	 1	    1.03000	    0.00000	 220.0	 4	    1.11000	    0.95000;
	195	 1	 0.0	 0.0	 0.0	 0.0	 1	    1.03000	    0.00000	 220.0	 4	    1.11000	    0.95000;
	196	 1	 0.0	 0.0	 0.0	 0.0	 1	    1.03000	    0.00000	 220.0	 4	    1.11000	    0.95000;
	197	 1	 0.0	 0.0	 0.0	 0.0	 1	    1.00000	    0.00000	 400.0	 4	    1.05000	    0.95000;
	198	 1	 0.0	 0.0	 0.0	 0.0	 1	    1.03000	    0.00000	 220.0	 4	    1.11000	    0.95000;
	199	 1	 0.0	 0.0	 0.0	 0.0	 1	    1.03000	    0.00000	 220.0	 4	    1.11000	    0.95000;
	200	 1	 0.0	 0.0	 0.0	 0.0	 1	    1.03000	    0.00000	 220.0	 4	    1.11000	    0.95000;
...
];

%% generator data
%	bus	Pg	Qg	Qmax	Qmin	Vg	mBase	status	Pmax	Pmin
mpc.gen = [
	22	 165.5	 50.5	 162.0	 -61.0	 1.03	 235.0	 1	 221.0	 110.0;
	23	 170.0	 57.5	 140.0	 -25.0	 1.03	 235.0	 1	 200.0	 140.0;
	35	 0.0	 0.0	 190.0	 -19.0	 1.03	 426.0	 0	 370.0	 240.0;
	35	 0.0	 0.0	 190.0	 -19.0	 1.03	 426.0	 0	 370.0	 240.0;
	35	 305.0	 85.5	 190.0	 -19.0	 1.03	 426.0	 1	 370.0	 240.0;
	36	 305.0	 85.5	 190.0	 -19.0	 1.03	 426.0	 1	 370.0	 240.0;
	36	 305.0	 85.5	 190.0	 -19.0	 1.03	 426.0	 1	 370.0	 240.0;
	37	 305.0	 85.5	 190.0	 -19.0	 1.0	 426.0	 1	 370.0	 240.0;
	37	 305.0	 85.5	 190.0	 -19.0	 1.0	 426.0	 1	 370.0	 240.0;
	37	 305.0	 85.5	 190.0	 -19.0	 1.0	 426.0	 1	 370.0	 240.0;
	38	 305.0	 85.5	 190.0	 -19.0	 1.0	 426.0	 1	 370.0	 240.0;
	38	 305.0	 85.5	 190.0	 -19.0	 1.0	 426.0	 1	 370.0	 240.0;
	38	 305.0	 85.5	 190.0	 -19.0	 1.0	 426.0	 1	 370.0	 240.0;
	55	 162.5	 59.5	 152.0	 -33.0	 1.03	 235.0	 1	 215.0	 110.0;
	55	 0.0	 0.0	 152.0	 -33.0	 1.03	 235.0	 0	 220.0	 125.0;
	56	 0.0	 0.0	 149.0	 -33.0	 1.03	 235.0	 0	 225.0	 125.0;
	56	 167.5	 58.0	 149.0	 -33.0	 1.03	 235.0	 1	 225.0	 110.0;
	57	 167.5	 58.0	 149.0	 -33.0	 1.03	 235.0	 1	 225.0	 110.0;
	57	 172.5	 58.0	 149.0	 -33.0	 1.03	 235.0	 1	 225.0	 120.0;
	58	 395.0	 158.0	 363.0	 -47.0	 1.0	 588.0	 1	 535.0	 255.0;
	59	 405.0	 124.0	 348.0	 -100.0	 1.0	 588.0	 1	 560.0	 250.0;
	68	 177.0	 53.0	 120.0	 -14.0	 1.03	 235.0	 1	 225.0	 129.0;
	69	 177.0	 53.0	 120.0	 -14.0	 1.03	 235.0	 1	 225.0	 129.0;
	69	 177.0	 44.5	 99.0	 -10.0	 1.03	 235.0	 1	 225.0	 129.0;
	70	 0.0	 0.0	 120.0	 -14.0	 1.0	 235.0	 0	 225.0	 129.0;
	70	 0.0	 0.0	 120.0	 -14.0	 1.0	 235.0	 0	 225.0	 129.0;
	71	 177.0	 44.5	 99.0	 -10.0	 1.0	 235.0	 1	 225.0	 129.0;
	71	 177.0	 53.0	 120.0	 -14.0	 1.0	 235.0	 1	 225.0	 129.0;
	92	 180.0	 63.5	 134.0	 -7.0	 1.03	 271.0	 1	 220.0	 140.0;
	92	 182.5	 62.5	 131.0	 -6.0	 1.03	 271.0	 1	 225.0	 140.0;
	93	 0.0	 0.0	 131.0	 -6.0	 1.03	 271.0	 0	 225.0	 140.0;
	93	 182.5	 62.5	 131.0	 -6.0	 1.03	 271.0	 1	 225.0	 140.0;
	93	 182.5	 62.5	 131.0	 -6.0	 1.03	 271.0	 1	 225.0	 140.0;
	96	 281.5	 91.5	 213.0	 -30.0	 1.0	 426.0	 1	 383.0	 180.0;
	96	 280.0	 90.5	 212.0	 -31.0	 1.0	 435.0	 1	 380.0	 180.0;
	113	 0.0	 0.0	 0.0	 0.0	 1.03	 12.0	 0	 12.0	 0.0;
	113	 0.0	 0.0	 0.0	 0.0	 1.03	 6.0	 0	 6.0	 0.0;
	113	 10.5	 0.0	 0.0	 0.0	 1.03	 26.0	 1	 21.0	 0.0;
	119	 172.5	 55.0	 120.0	 -10.0	 1.03	 271.0	 1	 225.0	 120.0;
	120	 172.5	 55.0	 120.0	 -10.0	 1.03	 271.0	 1	 225.0	 120.0;
	121	 95.0	 36.0	 73.0	 -1.0	 1.03	 150.0	 1	 120.0	 70.0;
	122	 95.0	 36.0	 73.0	 -1.0	 1.03	 150.0	 1	 120.0	 70.0;
	132	 0.0	 0.0	 79.0	 0.0	 1.03	 150.0	 0	 120.0	 70.0;
	133	 95.0	 39.5	 79.0	 0.0	 1.03	 150.0	 1	 120.0	 70.0;
	134	 95.0	 15.5	 31.0	 0.0	 1.03	 118.0	 1	 110.0	 80.0;
	142	 175.0	 50.0	 135.0	 -35.0	 1.03	 271.0	 1	 215.0	 135.0;
	143	 175.0	 50.0	 135.0	 -35.0	 1.03	 271.0	 1	 215.0	 135.0;
	143	 180.0	 52.5	 140.0	 -35.0	 1.03	 271.0	 1	 225.0	 135.0;
	144	 180.0	 52.0	 140.0	 -36.0	 1.0	 271.0	 1	 225.0	 135.0;
	144	 177.5	 50.5	 137.0	 -36.0	 1.0	 271.0	 1	 220.0	 135.0;
	150	 0.0	 0.0	 72.0	 -29.0	 1.03	 150.0	 0	 135.0	 -135.0;
	150	 0.0	 0.0	 72.0	 -29.0	 1.03	 150.0	 0	 135.0	 -135.0;
	151	 0.0	 0.0	 72.0	 -29.0	 1.03	 150.0	 0	 135.0	 -135.0;
	151	 0.0	 0.0	 72.0	 -29.0	 1.03	 150.0	 0	 135.0	 -135.0;
	152	 110.0	 35.0	 85.0	 -15.0	 1.03	 150.0	 1	 120.0	 100.0;
	152	 0.0	 0.0	 85.0	 -15.0	 1.03	 150.0	 0	 120.0	 100.0;
	153	 110.0	 35.0	 85.0	 -15.0	 1.03	 150.0	 1	 120.0	 100.0;
	167	 0.0	 0.0	 12.0	 0.0	 1.03	 51.0	 0	 50.0	 40.0;
	169	 170.0	 45.0	 111.0	 -21.0	 1.03	 238.0	 1	 205.0	 135.0;
	170	 0.0	 0.0	 102.0	 -15.0	 1.03	 252.0	 0	 222.0	 90.0;
	170	 0.0	 0.0	 111.0	 -21.0	 1.03	 238.0	 0	 205.0	 135.0;
	170	 166.0	 44.0	 119.0	 -31.0	 1.03	 252.0	 1	 232.0	 100.0;
	171	 156.0	 43.5	 102.0	 -15.0	 1.0	 252.0	 1	 222.0	 90.0;
	172	 0.0	 0.0	 93.0	 -10.0	 1.0	 252.0	 0	 232.0	 100.0;
	172	 156.0	 43.5	 102.0	 -15.0	 1.0	 252.0	 1	 222.0	 90.0;
	177	 182.5	 46.0	 127.0	 -35.0	 1.03	 287.0	 1	 261.0	 104.0;
	177	 164.5	 53.5	 145.0	 -38.0	 1.03	 264.0	 1	 235.0	 94.0;
	178	 0.0	 0.0	 103.0	 -17.0	 1.03	 238.0	 0	 206.0	 120.0;
	178	 164.5	 53.5	 145.0	 -38.0	 1.03	 264.0	 1	 235.0	 94.0;
	178	 182.5	 46.0	 127.0	 -35.0	 1.03	 287.0	 1	 261.0	 104.0;
	178	 182.5	 46.0	 127.0	 -35.0	 1.03	 287.0	 1	 261.0	 104.0;
	180	 163.0	 43.0	 103.0	 -17.0	 1.0	 238.0	 1	 206.0	 120.0;
	180	 163.0	 43.0	 103.0	 -17.0	 1.0	 238.0	 1	 206.0	 120.0;
	188	 187.5	 40.0	 112.0	 -32.0	 1.03	 233.0	 1	 225.0	 150.0;
	189	 175.0	 40.0	 112.0	 -32.0	 1.03	 233.0	 1	 200.0	 150.0;
	189	 0.0	 0.0	 112.0	 -32.0	 1.03	 233.0	 0	 200.0	 150.0;
	189	 175.0	 40.0	 112.0	 -32.0	 1.03	 233.0	 1	 200.0	 150.0;
	190	 325.0	 17.5	 294.0	 -259.0	 1.0	 464.0	 1	 464.0	 186.0;
	204	 0.0	 0.0	 100.0	 0.0	 1.03	 218.0	 0	 188.0	 76.0;
	236	 -10.5	 21.5	 105.0	 -62.0	 1.0	 209.0	 1	 179.0	 -200.0;
	236	 -10.5	 21.5	 105.0	 -62.0	 1.0	 209.0	 1	 179.0	 -200.0;
	236	 -10.5	 27.5	 130.0	 -75.0	 1.0	 209.0	 1	 179.0	 -200.0;
	237	 -10.5	 30.0	 160.0	 -100.0	 1.0	 209.0	 1	 179.0	 -200.0;
	240	 181.5	 75.0	 150.0	 0.0	 1.03	 156.0	 1	 250.0	 113.0;
	250	 0.0	 0.0	 20.0	 0.0	 1.035	 79.0	 0	 55.0	 23.0;
	250	 0.0	 0.0	 20.0	 0.0	 1.035	 69.0	 0	 50.0	 25.0;
	251	 15.0	 10.0	 20.0	 0.0	 1.035	 28.0	 1	 23.0	 7.0;
	251	 0.0	 0.0	 20.0	 0.0	 1.035	 69.0	 0	 50.0	 25.0;
	267	 1.0	 0.5	 1.0	 0.0	 1.035	 1.0	 1	 2.0	 0.0;
	268	 1.0	 0.5	 1.0	 0.0	 1.035	 1.0	 1	 2.0	 0.0;
	282	 0.0	 0.0	 5.0	 0.0	 1.035	 10.0	 0	 7.0	 6.0;
	283	 0.0	 0.0	 5.0	 0.0	 1.035	 10.0	 0	 7.0	 6.0;
	301	 3.0	 1.875	 3.75	 0.0	 1.035	 5.0	 1	 5.0	 1.0;
	301	 3.0	 1.875	 3.75	 0.0	 1.035	 5.0	 1	 5.0	 1.0;
	301	 3.0	 1.875	 3.75	 0.0	 1.035	 5.0	 1	 5.0	 1.0;
	302	 3.0	 1.875	 3.75	 0.0	 1.035	 5.0	 1	 5.0	 1.0;
	316	 305.0	 85.5	 190.0	 -19.0	 1.035	 426.0	 1	 370.0	 240.0;
	322	 0.0	 0.0	 2.0	 0.0	 1.035	 4.0	 0	 6.0	 1.0;
	322	 0.0	 0.0	 2.0	 0.0	 1.035	 4.0	 0	 6.0	 1.0;
	369	 15.0	 2.0	 4.0	 0.0	 1.035	 30.0	 1	 30.0	 0.0;
	398	 0.0	 0.0	 5.0	 0.0	 1.035	 8.0	 0	 7.0	 5.0;
	402	 0.5	 0.5	 1.0	 0.0	 1.035	 1.0	 1	 1.0	 0.0;
	402	 0.5	 0.5	 1.0	 0.0	 1.035	 1.0	 1	 1.0	 0.0;
	402	 0.5	 0.5	 1.0	 0.0	 1.035	 1.0	 1	 1.0	 0.0;
	409	 0.0	 0.0	 7.0	 0.0	 1.035	 31.0	 0	 27.0	 11.0;
	409	 20.5	 3.5	 7.0	 0.0	 1.035	 39.0	 1	 30.0	 11.0;
	409	 0.0	 0.0	 6.0	 0.0	 1.035	 41.0	 0	 30.0	 9.0;
	411	 0.0	 0.0	 15.0	 0.0	 1.035	 69.0	 0	 55.0	 20.0;
	411	 37.5	 7.5	 15.0	 0.0	 1.035	 69.0	 1	 55.0	 20.0;
	412	 0.0	 0.0	 15.0	 0.0	 1.035	 49.0	 0	 40.0	 10.0;
	412	 0.0	 0.0	 15.0	 0.0	 1.035	 69.0	 0	 55.0	 20.0;
	414	 0.0	 0.0	 20.0	 0.0	 1.035	 69.0	 0	 50.0	 25.0;
	414	 0.0	 0.0	 20.0	 0.0	 1.035	 147.0	 0	 100.0	 55.0;
	415	 42.5	 20.0	 40.0	 0.0	 1.035	 69.0	 1	 60.0	 25.0;
	428	 2.5	 1.5	 3.0	 0.0	 1.035	 4.0	 1	 3.0	 2.0;
	466	 0.0	 0.0	 1.0	 0.0	 1.035	 2.0	 0	 2.0	 1.0;
	492	 33.5	 17.5	 57.0	 -22.0	 1.035	 69.0	 1	 52.0	 15.0;
	493	 35.0	 17.5	 57.0	 -22.0	 1.035	 69.0	 1	 55.0	 15.0;
	494	 35.0	 17.5	 57.0	 -22.0	 1.035	 69.0	 1	 55.0	 15.0;
	494	 35.0	 17.5	 57.0	 -22.0	 1.035	 69.0	 1	 55.0	 15.0;
	495	 35.0	 17.5	 57.0	 -22.0	 1.035	 69.0	 1	 55.0	 15.0;
	495	 40.0	 21.5	 71.0	 -28.0	 1.035	 88.0	 1	 77.0	 3.0;
	517	 173.0	 50.5	 162.0	 -61.0	 1.035	 235.0	 1	 226.0	 120.0;
	517	 0.0	 0.0	 12.0	 0.0	 1.035	 49.0	 0	 25.0	 12.0;
	518	 13.5	 6.0	 12.0	 0.0	 1.035	 49.0	 1	 17.0	 10.0;
	522	 0.0	 0.0	 2.0	 0.0	 1.035	 6.0	 0	 4.0	 4.0;
	542	 0.0	 0.1	 0.2	 0.0	 1.035	 0.0	 1	 0.0	 0.0;
	571	 0.0	 0.0	 4.0	 0.0	 1.035	 8.0	 0	 7.0	 3.0;
	580	 0.0	 0.0	 3.0	 0.0	 1.035	 5.0	 0	 3.0	 3.0;
	587	 4.0	 4.25	 4.7	 3.8	 1.035	 7.0	 1	 7.0	 1.0;
	587	 4.0	 4.25	 4.7	 3.8	 1.035	 7.0	 1	 7.0	 1.0;
	587	 0.0	 0.0	 4.7	 3.8	 1.035	 7.0	 0	 7.0	 1.0;
	599	 2.5	 1.0	 2.0	 0.0	 1.035	 4.0	 1	 3.0	 2.0;
	633	 0.0	 0.0	 2.0	 0.0	 1.035	 5.0	 0	 4.0	 3.0;
	663	 1.5	 0.35	 0.7	 0.0	 1.035	 2.0	 1	 2.0	 1.0;
	663	 0.0	 0.0	 0.7	 0.0	 1.035	 2.0	 0	 2.0	 1.0;
	669	 0.0	 0.0	 3.0	 0.0	 1.035	 6.0	 0	 4.0	 3.0;
	740	 44.5	 18.5	 35.0	 2.0	 1.035	 63.0	 1	 52.0	 37.0;
	740	 0.0	 0.0	 23.0	 2.0	 1.035	 38.0	 0	 30.0	 10.0;
	740	 0.0	 0.0	 85.0	 6.0	 1.035	 150.0	 0	 105.0	 50.0;
	740	 77.5	 45.5	 85.0	 6.0	 1.035	 150.0	 1	 105.0	 50.0;
	741	 0.0	 0.0	 23.0	 2.0	 1.035	 38.0	 0	 30.0	 10.0;
	741	 0.0	 0.0	 23.0	 2.0	 1.035	 38.0	 0	 30.0	 10.0;
	741	 20.0	 13.5	 25.0	 2.0	 1.035	 38.0	 1	 30.0	 10.0;
	741	 96.5	 45.5	 85.0	 6.0	 1.035	 150.0	 1	 125.0	 68.0;
	741	 0.0	 0.0	 85.0	 6.0	 1.035	 150.0	 0	 105.0	 50.0;
	762	 1.5	 0.35	 0.7	 0.0	 1.035	 2.0	 1	 2.0	 1.0;
	764	 0.5	 0.5	 1.0	 0.0	 1.035	 4.0	 1	 1.0	 0.0;
	772	 0.0	 0.0	 18.0	 2.0	 1.035	 38.0	 0	 35.0	 9.0;
	772	 14.5	 16.0	 30.0	 2.0	 1.035	 38.0	 1	 20.0	 9.0;
	773	 0.0	 0.0	 18.0	 2.0	 1.035	 38.0	 0	 35.0	 9.0;
	773	 0.0	 0.0	 18.0	 2.0	 1.035	 38.0	 0	 35.0	 9.0;
	773	 0.0	 0.0	 18.0	 2.0	 1.035	 38.0	 0	 35.0	 9.0;
	773	 63.5	 35.5	 65.0	 6.0	 1.035	 121.0	 1	 97.0	 30.0;
	774	 0.0	 0.0	 18.0	 2.0	 1.035	 38.0	 0	 35.0	 9.0;
	774	 0.0	 0.0	 18.0	 2.0	 1.035	 38.0	 0	 30.0	 9.0;
	774	 0.0	 0.0	 14.0	 2.0	 1.035	 32.0	 0	 28.0	 9.0;
	809	 4.5	 2.0	 4.0	 0.0	 1.035	 5.0	 1	 8.0	 1.0;
	809	 0.0	 0.0	 2.0	 0.0	 1.035	 2.0	 0	 2.0	 1.0;
	829	 0.0	 0.0	 4.5	 0.2	 1.035	 6.0	 0	 4.0	 4.0;
	844	 1.5	 0.0	 0.0	 0.0	 1.035	 6.0	 1	 3.0	 0.0;
	853	 0.0	 0.0	 0.0	 0.0	 1.035	 4.0	 0	 5.0	 0.0;
	876	 46.5	 15.0	 30.0	 0.0	 1.035	 65.0	 1	 93.0	 0.0;
	876	 18.0	 15.0	 30.0	 0.0	 1.035	 65.0	 1	 36.0	 0.0;
	879	 0.0	 0.0	 0.0	 0.0	 1.035	 12.0	 0	 3.0	 0.0;
	886	 0.0	 0.0	 0.0	 0.0	 1.035	 5.0	 0	 6.0	 0.0;
	887	 0.0	 0.0	 0.0	 0.0	 1.035	 6.0	 0	 6.0	 0.0;
	922	 180.0	 58.0	 149.0	 -33.0	 1.035	 235.0	 1	 225.0	 135.0;
	923	 0.0	 0.0	 149.0	 -33.0	 1.035	 235.0	 0	 225.0	 110.0;
	931	 0.0	 0.0	 0.0	 0.0	 1.035	 3.0	 0	 3.0	 0.0;
	937	 0.0	 0.0	 0.0	 0.0	 1.035	 12.0	 0	 12.0	 0.0;
	947	 0.0	 0.0	 30.0	 0.0	 1.035	 168.0	 0	 170.0	 66.0;
	947	 0.0	 0.0	 30.0	 0.0	 1.035	 72.0	 0	 61.0	 34.0;
	953	 0.0	 0.0	 0.0	 0.0	 1.035	 8.0	 0	 21.0	 0.0;
	967	 0.0	 0.0	 0.0	 0.0	 1.035	 6.0	 0	 7.0	 0.0;
	970	 0.0	 0.0	 0.0	 0.0	 1.035	 3.0	 0	 10.0	 0.0;
	985	 15.0	 0.0	 0.0	 0.0	 1.035	 3.0	 1	 30.0	 0.0;
	990	 1.0	 0.0	 0.0	 0.0	 1.035	 1.0	 1	 2.0	 0.0;
	995	 0.0	 0.0	 0.0	 0.0	 1.035	 1.0	 0	 2.0	 0.0;
	1006	 0.0	 0.0	 0.0	 0.0	 1.035	 2.0	 0	 2.0	 1.0;
	1011	 177.0	 53.0	 120.0	 -14.0	 1.035	 235.0	 1	 225.0	 129.0;
	1013	 0.0	 0.0	 30.0	 0.0	 1.035	 37.0	 0	 36.0	 0.0;
	1016	 0.0	 0.0	 0.0	 0.0	 1.035	 3.0	 0	 3.0	 2.0;
	1036	 0.0	 0.0	 30.0	 0.0	 1.035	 101.0	 0	 101.0	 49.0;
	1042	 0.0	 0.0	 0.0	 0.0	 1.035	 2.0	 0	 12.0	 0.0;
	1057	 6.0	 15.0	 30.0	 0.0	 1.035	 10.0	 1	 12.0	 0.0;
	1060	 0.0	 0.0	 0.0	 0.0	 1.035	 2.0	 0	 2.0	 1.0;
	1062	 0.0	 0.0	 0.0	 0.0	 1.035	 6.0	 0	 6.0	 1.0;
	1067	 4.0	 0.0	 0.0	 0.0	 1.035	 11.0	 1	 8.0	 0.0;
	1071	 0.0	 0.0	 23.0	 0.0	 1.035	 52.0	 0	 68.0	 5.0;
	1071	 36.5	 11.5	 23.0	 0.0	 1.035	 52.0	 1	 68.0	 5.0;
	1071	 0.0	 0.0	 11.0	 0.0	 1.035	 25.0	 0	 31.0	 -32.0;
	1071	 0.0	 0.0	 10.0	 0.0	 1.035	 25.0	 0	 31.0	 -32.0;
	1086	 0.0	 0.0	 24.0	 -1.0	 1.035	 69.0	 0	 50.0	 8.0;
	1086	 108.5	 29.5	 74.0	 -15.0	 1.035	 58.0	 1	 125.0	 92.0;
	1087	 105.0	 29.5	 74.0	 -15.0	 1.035	 58.0	 1	 125.0	 85.0;
	1087	 0.0	 0.0	 28.0	 -2.0	 1.035	 40.0	 0	 41.0	 12.0;
	1099	 0.0	 0.0	 0.0	 0.0	 1.035	 3.0	 0	 3.0	 0.0;
	1126	 0.0	 0.0	 0.0	 0.0	 1.035	 4.0	 0	 3.0	 2.0;
	1132	 15.5	 0.0	 0.0	 0.0	 1.035	 31.0	 1	 31.0	 0.0;
...
];

%% generator cost data
%	2	startup	shutdown	n	c(n-1)	...	c0
mpc.gencost = [
2	0.0	0.0	3	0.2	158.610000	0.000000;
2	0.0	0.0	3	0.2	158.610000	0.000000;
2	0.0	0.0	3	0.2	107.030000	0.000000;
2	0.0	0.0	3	0.2	107.030000	0.000000;
2	0.0	0.0	3	0.2	107.030000	0.000000;
2	0.0	0.0	3	0.2	107.030000	0.000000;
2	0.0	0.0	3	0.2	107.030000	0.000000;
2	0.0	0.0	3	0.2	107.030000	0.000000;
2	0.0	0.0	3	0.2	107.030000	0.000000;
2	0.0	0.0	3	0.2	107.030000	0.000000;
2	0.0	0.0	3	0.2	107.030000	0.000000;
2	0.0	0.0	3	0.2	107.030000	0.000000;
2	0.0	0.0	3	0.2	107.030000	0.000000;
2	0.0	0.0	3	0.2	143.520000	0.000000;
2	0.0	0.0	3	0.2	143.520000	0.000000;
2	0.0	0.0	3	0.2	143.520000	0.000000;
2	0.0	0.0	3	0.2	143.520000	0.000000;
2	0.0	0.0	3	0.2	143.520000	0.000000;
2	0.0	0.0	3	0.2	143.520000	0.000000;
2	0.0	0.0	3	0.2	143.520000	0.000000;
2	0.0	0.0	3	0.2	143.520000	0.000000;
2	0.0	0.0	3	0.2	148.160000	0.000000;
2	0.0	0.0	3	0.2	148.160000	0.000000;
2	0.0	0.0	3	0.2	148.160000	0.000000;
2	0.0	0.0	3	0.2	148.160000	0.000000;
2	0.0	0.0	3	0.2	148.160000	0.000000;
2	0.0	0.0	3	0.2	148.160000	0.000000;
2	0.0	0.0	3	0.2	148.160000	0.000000;
2	0.0	0.0	3	0.2	134.040000	0.000000;
2	0.0	0.0	3	0.2	134.040000	0.000000;
2	0.0	0.0	3	0.2	134.040000	0.000000;
2	0.0	0.0	3	0.2	134.040000	0.000000;
2	0.0	0.0	3	0.2	134.040000	0.000000;
2	0.0	0.0	3	0.2	126.620000	0.000000;
2	0.0	0.0	3	0.2	126.620000	0.000000;
	2	 0.0	 0.0	 3	   0.000000	   0.000000	   0.000000;
	2	 0.0	 0.0	 3	   0.000000	   0.000000	   0.000000;
	2	 0.0	 0.0	 3	   0.000000	   0.000000	   0.000000;
2	0.0	0.0	3	0.2	130.490000	0.000000;
2	0.0	0.0	3	0.2	130.490000	0.000000;
2	0.0	0.0	3	0.2	132.330000	0.000000;
2	0.0	0.0	3	0.2	132.330000	0.000000;
2	0.0	0.0	3	0.2	136.590000	0.000000;
2	0.0	0.0	3	0.2	136.590000	0.000000;
2	0.0	0.0	3	0.2	139.960000	0.000000;
2	0.0	0.0	3	0.2	128.210000	0.000000;
2	0.0	0.0	3	0.2	128.210000	0.000000;
2	0.0	0.0	3	0.2	128.210000	0.000000;
2	0.0	0.0	3	0.2	128.210000	0.000000;
2	0.0	0.0	3	0.2	128.210000	0.000000;
2	0.0	0.0	3	0.2	137.400000	0.000000;
2	0.0	0.0	3	0.2	137.400000	0.000000;
2	0.0	0.0	3	0.2	137.400000	0.000000;
2	0.0	0.0	3	0.2	137.400000	0.000000;
2	0.0	0.0	3	0.2	129.990000	0.000000;
2	0.0	0.0	3	0.2	129.990000	0.000000;
2	0.0	0.0	3	0.2	129.990000	0.000000;
2	0.0	0.0	3	0.2	135.600000	0.000000;
2	0.0	0.0	3	0.2	163.160000	0.000000;
2	0.0	0.0	3	0.2	163.160000	0.000000;
2	0.0	0.0	3	0.2	163.160000	0.000000;
2	0.0	0.0	3	0.2	163.160000	0.000000;
2	0.0	0.0	3	0.2	163.160000	0.000000;
2	0.0	0.0	3	0.2	163.160000	0.000000;
2	0.0	0.0	3	0.2	163.160000	0.000000;
2	0.0	0.0	3	0.2	139.010000	0.000000;
2	0.0	0.0	3	0.2	139.010000	0.000000;
2	0.0	0.0	3	0.2	139.010000	0.000000;
2	0.0	0.0	3	0.2	139.010000	0.000000;
2	0.0	0.0	3	0.2	139.010000	0.000000;
2	0.0	0.0	3	0.2	139.010000	0.000000;
2	0.0	0.0	3	0.2	139.010000	0.000000;
2	0.0	0.0	3	0.2	139.010000	0.000000;
2	0.0	0.0	3	0.2	125.480000	0.000000;
2	0.0	0.0	3	0.2	125.480000	0.000000;
2	0.0	0.0	3	0.2	125.480000	0.000000;
2	0.0	0.0	3	0.2	125.480000	0.000000;
2	0.0	0.0	3	0.2	125.480000	0.000000;
2	0.0	0.0	3	0.2	137.400000	0.000000;
2	0.0	0.0	3	0.2	137.400000	0.000000;
2	0.0	0.0	3	0.2	137.400000	0.000000;
2	0.0	0.0	3	0.2	137.400000	0.000000;
2	0.0	0.0	3	0.2	137.400000	0.000000;
	2	 0.0	 0.0	 3	   0.000000	   0.000000	   0.000000;
	2	 0.0	 0.0	 3	   0.000000	   0.000000	   0.000000;
	2	 0.0	 0.0	 3	   0.000000	   0.000000	   0.000000;
	2	 0.0	 0.0	 3	   0.000000	   0.000000	   0.000000;
	2	 0.0	 0.0	 3	   0.000000	   0.000000	   0.000000;
	2	 0.0	 0.0	 3	   0.000000	   0.000000	   0.000000;
	2	 0.0	 0.0	 3	   0.000000	   0.000000	   0.000000;
	2	 0.0	 0.0	 3	   0.000000	   0.000000	   0.000000;
	2	 0.0	 0.0	 3	   0.000000	   0.000000	   0.000000;
	2	 0.0	 0.0	 3	   0.000000	   0.000000	   0.000000;
	2	 0.0	 0.0	 3	   0.000000	   0.000000	   0.000000;
	2	 0.0	 0.0	 3	   0.000000	   0.000000	   0.000000;
	2	 0.0	 0.0	 3	   0.000000	   0.000000	   0.000000;
2	0.0	0.0	3	0.2	107.030000	0.000000;
	2	 0.0	 0.0	 3	   0.000000	   0.000000	   0.000000;
	2	 0.0	 0.0	 3	   0.000000	   0.000000	   0.000000;
	2	 0.0	 0.0	 3	   0.000000	   0.000000	   0.000000;
	2	 0.0	 0.0	 3	   0.000000	   0.000000	   0.000000;
	2	 0.0	 0.0	 3	   0.000000	   0.000000	   0.000000;
	2	 0.0	 0.0	 3	   0.000000	   0.000000	   0.000000;
	2	 0.0	 0.0	 3	   0.000000	   0.000000	   0.000000;
	2	 0.0	 0.0	 3	   0.000000	   0.000000	   0.000000;
	2	 0.0	 0.0	 3	   0.000000	   0.000000	   0.000000;
	2	 0.0	 0.0	 3	   0.000000	   0.000000	   0.000000;
	2	 0.0	 0.0	 3	   0.000000	   0.000000	   0.000000;
	2	 0.0	 0.0	 3	   0.000000	   0.000000	   0.000000;
	2	 0.0	 0.0	 3	   0.000000	   0.000000	   0.000000;
	2	 0.0	 0.0	 3	   0.000000	   0.000000	   0.000000;
	2	 0.0	 0.0	 3	   0.000000	   0.000000	   0.000000;
	2	 0.0	 0.0	 3	   0.000000	   0.000000	   0.000000;
	2	 0.0	 0.0	 3	   0.000000	   0.000000	   0.000000;
	2	 0.0	 0.0	 3	   0.000000	   0.000000	   0.000000;
	2	 0.0	 0.0	 3	   0.000000	   0.000000	   0.000000;
	2	 0.0	 0.0	 3	   0.000000	   0.000000	   0.000000;
	2	 0.0	 0.0	 3	   0.000000	   0.000000	   0.000000;
	2	 0.0	 0.0	 3	   0.000000	   0.000000	   0.000000;
	2	 0.0	 0.0	 3	   0.000000	   0.000000	   0.000000;
	2	 0.0	 0.0	 3	   0.000000	   0.000000	   0.000000;
	2	 0.0	 0.0	 3	   0.000000	   0.000000	   0.000000;
2	0.0	0.0	3	0.2	158.610000	0.000000;
2	0.0	0.0	3	0.2	158.610000	0.000000;
2	0.0	0.0	3	0.2	158.610000	0.000000;
	2	 0.0	 0.0	 3	   0.000000	   0.000000	   0.000000;
	2	 0.0	 0.0	 3	   0.000000	   0.000000	   0.000000;
	2	 0.0	 0.0	 3	   0.000000	   0.000000	   0.000000;
	2	 0.0	 0.0	 3	   0.000000	   0.000000	   0.000000;
	2	 0.0	 0.0	 3	   0.000000	   0.000000	   0.000000;
	2	 0.0	 0.0	 3	   0.000000	   0.000000	   0.000000;
	2	 0.0	 0.0	 3	   0.000000	   0.000000	   0.000000;
	2	 0.0	 0.0	 3	   0.000000	   0.000000	   0.000000;
	2	 0.0	 0.0	 3	   0.000000	   0.000000	   0.000000;
	2	 0.0	 0.0	 3	   0.000000	   0.000000	   0.000000;
	2	 0.0	 0.0	 3	   0.000000	   0.000000	   0.000000;
	2	 0.0	 0.0	 3	   0.000000	   0.000000	   0.000000;
	2	 0.0	 0.0	 3	   0.000000	   0.000000	   0.000000;
	2	 0.0	 0.0	 3	   0.000000	   0.000000	   0.000000;
	2	 0.0	 0.0	 3	   0.000000	   0.000000	   0.000000;
	2	 0.0	 0.0	 3	   0.000000	   0.000000	   0.000000;
	2	 0.0	 0.0	 3	   0.000000	   0.000000	   0.000000;
	2	 0.0	 0.0	 3	   0.000000	   0.000000	   0.000000;
	2	 0.0	 0.0	 3	   0.000000	   0.000000	   0.000000;
	2	 0.0	 0.0	 3	   0.000000	   0.000000	   0.000000;
	2	 0.0	 0.0	 3	   0.000000	   0.000000	   0.000000;
	2	 0.0	 0.0	 3	   0.000000	   0.000000	   0.000000;
	2	 0.0	 0.0	 3	   0.000000	   0.000000	   0.000000;
	2	 0.0	 0.0	 3	   0.000000	   0.000000	   0.000000;
	2	 0.0	 0.0	 3	   0.000000	   0.000000	   0.000000;
	2	 0.0	 0.0	 3	   0.000000	   0.000000	   0.000000;
	2	 0.0	 0.0	 3	   0.000000	   0.000000	   0.000000;
	2	 0.0	 0.0	 3	   0.000000	   0.000000	   0.000000;
	2	 0.0	 0.0	 3	   0.000000	   0.000000	   0.000000;
	2	 0.0	 0.0	 3	   0.000000	   0.000000	   0.000000;
	2	 0.0	 0.0	 3	   0.000000	   0.000000	   0.000000;
	2	 0.0	 0.0	 3	   0.000000	   0.000000	   0.000000;
	2	 0.0	 0.0	 3	   0.000000	   0.000000	   0.000000;
	2	 0.0	 0.0	 3	   0.000000	   0.000000	   0.000000;
	2	 0.0	 0.0	 3	   0.000000	   0.000000	   0.000000;
	2	 0.0	 0.0	 3	   0.000000	   0.000000	   0.000000;
	2	 0.0	 0.0	 3	   0.000000	   0.000000	   0.000000;
	2	 0.0	 0.0	 3	   0.000000	   0.000000	   0.000000;
	2	 0.0	 0.0	 3	   0.000000	   0.000000	   0.000000;
	2	 0.0	 0.0	 3	   0.000000	   0.000000	   0.000000;
	2	 0.0	 0.0	 3	   0.000000	   0.000000	   0.000000;
	2	 0.0	 0.0	 3	   0.000000	   0.000000	   0.000000;
2	0.0	0.0	3	0.2	143.520000	0.000000;
2	0.0	0.0	3	0.2	143.520000	0.000000;
	2	 0.0	 0.0	 3	   0.000000	   0.000000	   0.000000;
	2	 0.0	 0.0	 3	   0.000000	   0.000000	   0.000000;
	2	 0.0	 0.0	 3	   0.000000	   0.000000	   0.000000;
	2	 0.0	 0.0	 3	   0.000000	   0.000000	   0.000000;
	2	 0.0	 0.0	 3	   0.000000	   0.000000	   0.000000;
	2	 0.0	 0.0	 3	   0.000000	   0.000000	   0.000000;
	2	 0.0	 0.0	 3	   0.000000	   0.000000	   0.000000;
	2	 0.0	 0.0	 3	   0.000000	   0.000000	   0.000000;
	2	 0.0	 0.0	 3	   0.000000	   0.000000	   0.000000;
	2	 0.0	 0.0	 3	   0.000000	   0.000000	   0.000000;
	2	 0.0	 0.0	 3	   0.000000	   0.000000	   0.000000;
2	0.0	0.0	3	0.2	148.160000	0.000000;
	2	 0.0	 0.0	 3	   0.000000	   0.000000	   0.000000;
	2	 0.0	 0.0	 3	   0.000000	   0.000000	   0.000000;
	2	 0.0	 0.0	 3	   0.000000	   0.000000	   0.000000;
	2	 0.0	 0.0	 3	   0.000000	   0.000000	   0.000000;
	2	 0.0	 0.0	 3	   0.000000	   0.000000	   0.000000;
	2	 0.0	 0.0	 3	   0.000000	   0.000000	   0.000000;
	2	 0.0	 0.0	 3	   0.000000	   0.000000	   0.000000;
	2	 0.0	 0.0	 3	   0.000000	   0.000000	   0.000000;
	2	 0.0	 0.0	 3	   0.000000	   0.000000	   0.000000;
	2	 0.0	 0.0	 3	   0.000000	   0.000000	   0.000000;
	2	 0.0	 0.0	 3	   0.000000	   0.000000	   0.000000;
	2	 0.0	 0.0	 3	   0.000000	   0.000000	   0.000000;
2	0.0	0.0	3	0.2	157.000000	0.000000;
2	0.0	0.0	3	0.2	157.000000	0.000000;
2	0.0	0.0	3	0.2	157.000000	0.000000;
2	0.0	0.0	3	0.2	157.000000	0.000000;
	2	 0.0	 0.0	 3	   0.000000	   0.000000	   0.000000;
	2	 0.0	 0.0	 3	   0.000000	   0.000000	   0.000000;
	2	 0.0	 0.0	 3	   0.000000	   0.000000	   0.000000;
...
];

%% storage data
%	bus	energy	energy_rating	charge_rating	discharge_rating	thermal_rating	qmin	qmax	r	x	standby_loss	status
mpc.storage = [
	3117	0.0	0.0	1.00	951.0000	475.5000	342.3600	0.9	0.85	1000	-1000	1000	0.1	0.01	0	0	1;
	3114	0.0	0.0	1.00	609.0000	304.5000	219.2400	0.9	0.85	1000	-1000	1000	0.1	0.01	0	0	1;
	3119	0.0	0.0	1.00	258.6750	129.3375	93.1230	0.9	0.85	1000	-1000	1000	0.1	0.01	0	0	1;
	2351	0.0	0.0	1.00	166.3350	83.1675	59.8806	0.9	0.85	1000	-1000	1000	0.1	0.01	0	0	1;
	3043	0.0	0.0	1.00	125.8500	62.9250	45.3060	0.9	0.85	1000	-1000	1000	0.1	0.01	0	0	1;
	1429	0.0	0.0	1.00	120.0000	60.0000	43.2000	0.9	0.85	1000	-1000	1000	0.1	0.01	0	0	1;
	495	0.0	0.0	1.00	115.5900	57.7950	41.6124	0.9	0.85	1000	-1000	1000	0.1	0.01	0	0	1;
	3115	0.0	0.0	1.00	115.5000	57.7500	41.5800	0.9	0.85	1000	-1000	1000	0.1	0.01	0	0	1;
	2909	0.0	0.0	1.00	109.9950	54.9975	39.5982	0.9	0.85	1000	-1000	1000	0.1	0.01	0	0	1;
	1004	0.0	0.0	1.00	104.2800	52.1400	37.5408	0.9	0.85	1000	-1000	1000	0.1	0.01	0	0	1;
	494	0.0	0.0	1.00	103.7250	51.8625	37.3410	0.9	0.85	1000	-1000	1000	0.1	0.01	0	0	1;
	3111	0.0	0.0	1.00	97.5000	48.7500	35.1000	0.9	0.85	1000	-1000	1000	0.1	0.01	0	0	1;
	2910	0.0	0.0	1.00	94.3500	47.1750	33.9660	0.9	0.85	1000	-1000	1000	0.1	0.01	0	0	1;
	37	0.0	0.0	1.00	90.0000	45.0000	32.4000	0.9	0.85	1000	-1000	1000	0.1	0.01	0	0	1;
	38	0.0	0.0	1.00	90.0000	45.0000	32.4000	0.9	0.85	1000	-1000	1000	0.1	0.01	0	0	1;
	124	0.0	0.0	1.00	89.1000	44.5500	32.0760	0.9	0.85	1000	-1000	1000	0.1	0.01	0	0	1;
	178	0.0	0.0	1.00	88.3500	44.1750	31.8060	0.9	0.85	1000	-1000	1000	0.1	0.01	0	0	1;
	2762	0.0	0.0	1.00	85.8150	42.9075	30.8934	0.9	0.85	1000	-1000	1000	0.1	0.01	0	0	1;
	1433	0.0	0.0	1.00	85.5000	42.7500	30.7800	0.9	0.85	1000	-1000	1000	0.1	0.01	0	0	1;
	1485	0.0	0.0	1.00	84.6000	42.3000	30.4560	0.9	0.85	1000	-1000	1000	0.1	0.01	0	0	1;
	2600	0.0	0.0	1.00	82.7850	41.3925	29.8026	0.9	0.85	1000	-1000	1000	0.1	0.01	0	0	1;
	493	0.0	0.0	1.00	80.6550	40.3275	29.0358	0.9	0.85	1000	-1000	1000	0.1	0.01	0	0	1;
	1132	0.0	0.0	1.00	79.5300	39.7650	28.6308	0.9	0.85	1000	-1000	1000	0.1	0.01	0	0	1;
	1484	0.0	0.0	1.00	79.5000	39.7500	28.6200	0.9	0.85	1000	-1000	1000	0.1	0.01	0	0	1;
	2247	0.0	0.0	1.00	78.0900	39.0450	28.1124	0.9	0.85	1000	-1000	1000	0.1	0.01	0	0	1;
	3091	0.0	0.0	1.00	76.1100	38.0550	27.3996	0.9	0.85	1000	-1000	1000	0.1	0.01	0	0	1;
	2902	0.0	0.0	1.00	73.8450	36.9225	26.5842	0.9	0.85	1000	-1000	1000	0.1	0.01	0	0	1;
	36	0.0	0.0	1.00	69.5400	34.7700	25.0344	0.9	0.85	1000	-1000	1000	0.1	0.01	0	0	1;
	492	0.0	0.0	1.00	67.3200	33.6600	24.2352	0.9	0.85	1000	-1000	1000	0.1	0.01	0	0	1;
	3090	0.0	0.0	1.00	66.6150	33.3075	23.9814	0.9	0.85	1000	-1000	1000	0.1	0.01	0	0	1;
	1457	0.0	0.0	1.00	66.0000	33.0000	23.7600	0.9	0.85	1000	-1000	1000	0.1	0.01	0	0	1;
	1458	0.0	0.0	1.00	66.0000	33.0000	23.7600	0.9	0.85	1000	-1000	1000	0.1	0.01	0	0	1;
	3083	0.0	0.0	1.00	62.8500	31.4250	22.6260	0.9	0.85	1000	-1000	1000	0.1	0.01	0	0	1;
	143	0.0	0.0	1.00	62.2800	31.1400	22.4208	0.9	0.85	1000	-1000	1000	0.1	0.01	0	0	1;
	698	0.0	0.0	1.00	60.5100	30.2550	21.7836	0.9	0.85	1000	-1000	1000	0.1	0.01	0	0	1;
	1439	0.0	0.0	1.00	60.0000	30.0000	21.6000	0.9	0.85	1000	-1000	1000	0.1	0.01	0	0	1;
	3113	0.0	0.0	1.00	60.0000	30.0000	21.6000	0.9	0.85	1000	-1000	1000	0.1	0.01	0	0	1;
	999	0.0	0.0	1.00	59.5800	29.7900	21.4488	0.9	0.85	1000	-1000	1000	0.1	0.01	0	0	1;
	56	0.0	0.0	1.00	59.0250	29.5125	21.2490	0.9	0.85	1000	-1000	1000	0.1	0.01	0	0	1;
	2348	0.0	0.0	1.00	58.5450	29.2725	21.0762	0.9	0.85	1000	-1000	1000	0.1	0.01	0	0	1;
	101	0.0	0.0	1.00	58.2000	29.1000	20.9520	0.9	0.85	1000	-1000	1000	0.1	0.01	0	0	1;
	2770	0.0	0.0	1.00	57.8250	28.9125	20.8170	0.9	0.85	1000	-1000	1000	0.1	0.01	0	0	1;
	113	0.0	0.0	1.00	57.6150	28.8075	20.7414	0.9	0.85	1000	-1000	1000	0.1	0.01	0	0	1;
	190	0.0	0.0	1.00	57.0000	28.5000	20.5200	0.9	0.85	1000	-1000	1000	0.1	0.01	0	0	1;
	2337	0.0	0.0	1.00	56.5950	28.2975	20.3742	0.9	0.85	1000	-1000	1000	0.1	0.01	0	0	1;
	334	0.0	0.0	1.00	54.7500	27.3750	19.7100	0.9	0.85	1000	-1000	1000	0.1	0.01	0	0	1;
	346	0.0	0.0	1.00	54.7500	27.3750	19.7100	0.9	0.85	1000	-1000	1000	0.1	0.01	0	0	1;
	1007	0.0	0.0	1.00	54.2250	27.1125	19.5210	0.9	0.85	1000	-1000	1000	0.1	0.01	0	0	1;
	1546	0.0	0.0	1.00	53.1150	26.5575	19.1214	0.9	0.85	1000	-1000	1000	0.1	0.01	0	0	1;
	914	0.0	0.0	1.00	48.4200	24.2100	17.4312	0.9	0.85	1000	-1000	1000	0.1	0.01	0	0	1;
	35	0.0	0.0	1.00	48.2400	24.1200	17.3664	0.9	0.85	1000	-1000	1000	0.1	0.01	0	0	1;
	619	0.0	0.0	1.00	48.0450	24.0225	17.2962	0.9	0.85	1000	-1000	1000	0.1	0.01	0	0	1;
	96	0.0	0.0	1.00	48.0000	24.0000	17.2800	0.9	0.85	1000	-1000	1000	0.1	0.01	0	0	1;
	3106	0.0	0.0	1.00	48.0000	24.0000	17.2800	0.9	0.85	1000	-1000	1000	0.1	0.01	0	0	1;
	2585	0.0	0.0	1.00	47.9850	23.9925	17.2746	0.9	0.85	1000	-1000	1000	0.1	0.01	0	0	1;
	1087	0.0	0.0	1.00	47.3250	23.6625	17.0370	0.9	0.85	1000	-1000	1000	0.1	0.01	0	0	1;
	3108	0.0	0.0	1.00	47.2500	23.6250	17.0100	0.9	0.85	1000	-1000	1000	0.1	0.01	0	0	1;
	3109	0.0	0.0	1.00	47.2500	23.6250	17.0100	0.9	0.85	1000	-1000	1000	0.1	0.01	0	0	1;
	177	0.0	0.0	1.00	45.7500	22.8750	16.4700	0.9	0.85	1000	-1000	1000	0.1	0.01	0	0	1;
	3065	0.0	0.0	1.00	45.6600	22.8300	16.4376	0.9	0.85	1000	-1000	1000	0.1	0.01	0	0	1;
	2310	0.0	0.0	1.00	45.3000	22.6500	16.3080	0.9	0.85	1000	-1000	1000	0.1	0.01	0	0	1;
	2402	0.0	0.0	1.00	45.1200	22.5600	16.2432	0.9	0.85	1000	-1000	1000	0.1	0.01	0	0	1;
	1031	0.0	0.0	1.00	44.6850	22.3425	16.0866	0.9	0.85	1000	-1000	1000	0.1	0.01	0	0	1;
	2439	0.0	0.0	1.00	44.3100	22.1550	15.9516	0.9	0.85	1000	-1000	1000	0.1	0.01	0	0	1;
	2627	0.0	0.0	1.00	43.7700	21.8850	15.7572	0.9	0.85	1000	-1000	1000	0.1	0.01	0	0	1;
	2679	0.0	0.0	1.00	43.0050	21.5025	15.4818	0.9	0.85	1000	-1000	1000	0.1	0.01	0	0	1;
	2419	0.0	0.0	1.00	42.9750	21.4875	15.4710	0.9	0.85	1000	-1000	1000	0.1	0.01	0	0	1;
	2420	0.0	0.0	1.00	42.9750	21.4875	15.4710	0.9	0.85	1000	-1000	1000	0.1	0.01	0	0	1;
	2771	0.0	0.0	1.00	42.3150	21.1575	15.2334	0.9	0.85	1000	-1000	1000	0.1	0.01	0	0	1;
	92	0.0	0.0	1.00	42.0000	21.0000	15.1200	0.9	0.85	1000	-1000	1000	0.1	0.01	0	0	1;
	93	0.0	0.0	1.00	42.0000	21.0000	15.1200	0.9	0.85	1000	-1000	1000	0.1	0.01	0	0	1;
	144	0.0	0.0	1.00	42.0000	21.0000	15.1200	0.9	0.85	1000	-1000	1000	0.1	0.01	0	0	1;
	2215	0.0	0.0	1.00	42.0000	21.0000	15.1200	0.9	0.85	1000	-1000	1000	0.1	0.01	0	0	1;
	740	0.0	0.0	1.00	41.5500	20.7750	14.9580	0.9	0.85	1000	-1000	1000	0.1	0.01	0	0	1;
	344	0.0	0.0	1.00	41.5050	20.7525	14.9418	0.9	0.85	1000	-1000	1000	0.1	0.01	0	0	1;
	1424	0.0	0.0	1.00	40.8750	20.4375	14.7150	0.9	0.85	1000	-1000	1000	0.1	0.01	0	0	1;
	2235	0.0	0.0	1.00	39.7650	19.8825	14.3154	0.9	0.85	1000	-1000	1000	0.1	0.01	0	0	1;
	180	0.0	0.0	1.00	39.7500	19.8750	14.3100	0.9	0.85	1000	-1000	1000	0.1	0.01	0	0	1;
	1359	0.0	0.0	1.00	39.7350	19.8675	14.3046	0.9	0.85	1000	-1000	1000	0.1	0.01	0	0	1;
	2880	0.0	0.0	1.00	39.3300	19.6650	14.1588	0.9	0.85	1000	-1000	1000	0.1	0.01	0	0	1;
	57	0.0	0.0	1.00	39.0000	19.5000	14.0400	0.9	0.85	1000	-1000	1000	0.1	0.01	0	0	1;
	58	0.0	0.0	1.00	39.0000	19.5000	14.0400	0.9	0.85	1000	-1000	1000	0.1	0.01	0	0	1;
	59	0.0	0.0	1.00	39.0000	19.5000	14.0400	0.9	0.85	1000	-1000	1000	0.1	0.01	0	0	1;
	69	0.0	0.0	1.00	39.0000	19.5000	14.0400	0.9	0.85	1000	-1000	1000	0.1	0.01	0	0	1;
	71	0.0	0.0	1.00	39.0000	19.5000	14.0400	0.9	0.85	1000	-1000	1000	0.1	0.01	0	0	1;
	2251	0.0	0.0	1.00	38.8650	19.4325	13.9914	0.9	0.85	1000	-1000	1000	0.1	0.01	0	0	1;
	889	0.0	0.0	1.00	38.7300	19.3650	13.9428	0.9	0.85	1000	-1000	1000	0.1	0.01	0	0	1;
	1673	0.0	0.0	1.00	38.6400	19.3200	13.9104	0.9	0.85	1000	-1000	1000	0.1	0.01	0	0	1;
	443	0.0	0.0	1.00	38.0250	19.0125	13.6890	0.9	0.85	1000	-1000	1000	0.1	0.01	0	0	1;
	3038	0.0	0.0	1.00	37.6800	18.8400	13.5648	0.9	0.85	1000	-1000	1000	0.1	0.01	0	0	1;
	3057	0.0	0.0	1.00	37.6800	18.8400	13.5648	0.9	0.85	1000	-1000	1000	0.1	0.01	0	0	1;
	3110	0.0	0.0	1.00	37.5000	18.7500	13.5000	0.9	0.85	1000	-1000	1000	0.1	0.01	0	0	1;
	2556	0.0	0.0	1.00	37.4700	18.7350	13.4892	0.9	0.85	1000	-1000	1000	0.1	0.01	0	0	1;
	2345	0.0	0.0	1.00	37.4400	18.7200	13.4784	0.9	0.85	1000	-1000	1000	0.1	0.01	0	0	1;
	2346	0.0	0.0	1.00	37.4250	18.7125	13.4730	0.9	0.85	1000	-1000	1000	0.1	0.01	0	0	1;
	773	0.0	0.0	1.00	37.3650	18.6825	13.4514	0.9	0.85	1000	-1000	1000	0.1	0.01	0	0	1;
	2433	0.0	0.0	1.00	37.3350	18.6675	13.4406	0.9	0.85	1000	-1000	1000	0.1	0.01	0	0	1;
	878	0.0	0.0	1.00	37.2450	18.6225	13.4082	0.9	0.85	1000	-1000	1000	0.1	0.01	0	0	1;
	982	0.0	0.0	1.00	37.2450	18.6225	13.4082	0.9	0.85	1000	-1000	1000	0.1	0.01	0	0	1;
	985	0.0	0.0	1.00	37.0950	18.5475	13.3542	0.9	0.85	1000	-1000	1000	0.1	0.01	0	0	1;
	741	0.0	0.0	1.00	37.0500	18.5250	13.3380	0.9	0.85	1000	-1000	1000	0.1	0.01	0	0	1;
	1290	0.0	0.0	1.00	36.8250	18.4125	13.2570	0.9	0.85	1000	-1000	1000	0.1	0.01	0	0	1;
	2257	0.0	0.0	1.00	36.5700	18.2850	13.1652	0.9	0.85	1000	-1000	1000	0.1	0.01	0	0	1;
	517	0.0	0.0	1.00	36.2850	18.1425	13.0626	0.9	0.85	1000	-1000	1000	0.1	0.01	0	0	1;
	2886	0.0	0.0	1.00	36.1650	18.0825	13.0194	0.9	0.85	1000	-1000	1000	0.1	0.01	0	0	1;
	2997	0.0	0.0	1.00	36.1650	18.0825	13.0194	0.9	0.85	1000	-1000	1000	0.1	0.01	0	0	1;
	2641	0.0	0.0	1.00	35.9550	17.9775	12.9438	0.9	0.85	1000	-1000	1000	0.1	0.01	0	0	1;
	189	0.0	0.0	1.00	35.7000	17.8500	12.8520	0.9	0.85	1000	-1000	1000	0.1	0.01	0	0	1;
	1263	0.0	0.0	1.00	35.4150	17.7075	12.7494	0.9	0.85	1000	-1000	1000	0.1	0.01	0	0	1;
	2964	0.0	0.0	1.00	35.4150	17.7075	12.7494	0.9	0.85	1000	-1000	1000	0.1	0.01	0	0	1;
	1746	0.0	0.0	1.00	35.2650	17.6325	12.6954	0.9	0.85	1000	-1000	1000	0.1	0.01	0	0	1;
	432	0.0	0.0	1.00	34.7700	17.3850	12.5172	0.9	0.85	1000	-1000	1000	0.1	0.01	0	0	1;
	1449	0.0	0.0	1.00	34.7100	17.3550	12.4956	0.9	0.85	1000	-1000	1000	0.1	0.01	0	0	1;
	2240	0.0	0.0	1.00	34.6950	17.3475	12.4902	0.9	0.85	1000	-1000	1000	0.1	0.01	0	0	1;
	2276	0.0	0.0	1.00	34.6950	17.3475	12.4902	0.9	0.85	1000	-1000	1000	0.1	0.01	0	0	1;
	2998	0.0	0.0	1.00	34.6650	17.3325	12.4794	0.9	0.85	1000	-1000	1000	0.1	0.01	0	0	1;
	3047	0.0	0.0	1.00	34.6650	17.3325	12.4794	0.9	0.85	1000	-1000	1000	0.1	0.01	0	0	1;
	1648	0.0	0.0	1.00	34.5300	17.2650	12.4308	0.9	0.85	1000	-1000	1000	0.1	0.01	0	0	1;
	1647	0.0	0.0	1.00	34.5000	17.2500	12.4200	0.9	0.85	1000	-1000	1000	0.1	0.01	0	0	1;
	697	0.0	0.0	1.00	34.4700	17.2350	12.4092	0.9	0.85	1000	-1000	1000	0.1	0.01	0	0	1;
	2461	0.0	0.0	1.00	34.3800	17.1900	12.3768	0.9	0.85	1000	-1000	1000	0.1	0.01	0	0	1;
	2377	0.0	0.0	1.00	34.3200	17.1600	12.3552	0.9	0.85	1000	-1000	1000	0.1	0.01	0	0	1;
	925	0.0	0.0	1.00	34.2600	17.1300	12.3336	0.9	0.85	1000	-1000	1000	0.1	0.01	0	0	1;
	2656	0.0	0.0	1.00	34.0800	17.0400	12.2688	0.9	0.85	1000	-1000	1000	0.1	0.01	0	0	1;
	409	0.0	0.0	1.00	34.0500	17.0250	12.2580	0.9	0.85	1000	-1000	1000	0.1	0.01	0	0	1;
	1432	0.0	0.0	1.00	34.0500	17.0250	12.2580	0.9	0.85	1000	-1000	1000	0.1	0.01	0	0	1;
	2579	0.0	0.0	1.00	33.7650	16.8825	12.1554	0.9	0.85	1000	-1000	1000	0.1	0.01	0	0	1;
	2673	0.0	0.0	1.00	33.5700	16.7850	12.0852	0.9	0.85	1000	-1000	1000	0.1	0.01	0	0	1;
	2667	0.0	0.0	1.00	33.5250	16.7625	12.0690	0.9	0.85	1000	-1000	1000	0.1	0.01	0	0	1;
	2702	0.0	0.0	1.00	33.4200	16.7100	12.0312	0.9	0.85	1000	-1000	1000	0.1	0.01	0	0	1;
	541	0.0	0.0	1.00	33.0000	16.5000	11.8800	0.9	0.85	1000	-1000	1000	0.1	0.01	0	0	1;
	2555	0.0	0.0	1.00	32.8050	16.4025	11.8098	0.9	0.85	1000	-1000	1000	0.1	0.01	0	0	1;
	2523	0.0	0.0	1.00	32.7900	16.3950	11.8044	0.9	0.85	1000	-1000	1000	0.1	0.01	0	0	1;
	2670	0.0	0.0	1.00	32.7900	16.3950	11.8044	0.9	0.85	1000	-1000	1000	0.1	0.01	0	0	1;
	2620	0.0	0.0	1.00	32.7600	16.3800	11.7936	0.9	0.85	1000	-1000	1000	0.1	0.01	0	0	1;
	2669	0.0	0.0	1.00	32.6400	16.3200	11.7504	0.9	0.85	1000	-1000	1000	0.1	0.01	0	0	1;
	2708	0.0	0.0	1.00	32.4600	16.2300	11.6856	0.9	0.85	1000	-1000	1000	0.1	0.01	0	0	1;
	3048	0.0	0.0	1.00	31.9500	15.9750	11.5020	0.9	0.85	1000	-1000	1000	0.1	0.01	0	0	1;
	2527	0.0	0.0	1.00	31.6200	15.8100	11.3832	0.9	0.85	1000	-1000	1000	0.1	0.01	0	0	1;
	2807	0.0	0.0	1.00	31.5000	15.7500	11.3400	0.9	0.85	1000	-1000	1000	0.1	0.01	0	0	1;
	3084	0.0	0.0	1.00	31.5000	15.7500	11.3400	0.9	0.85	1000	-1000	1000	0.1	0.01	0	0	1;
	3093	0.0	0.0	1.00	31.5000	15.7500	11.3400	0.9	0.85	1000	-1000	1000	0.1	0.01	0	0	1;
	2707	0.0	0.0	1.00	31.2600	15.6300	11.2536	0.9	0.85	1000	-1000	1000	0.1	0.01	0	0	1;
	725	0.0	0.0	1.00	31.0800	15.5400	11.1888	0.9	0.85	1000	-1000	1000	0.1	0.01	0	0	1;
	726	0.0	0.0	1.00	31.0800	15.5400	11.1888	0.9	0.85	1000	-1000	1000	0.1	0.01	0	0	1;
	734	0.0	0.0	1.00	31.0800	15.5400	11.1888	0.9	0.85	1000	-1000	1000	0.1	0.01	0	0	1;
	735	0.0	0.0	1.00	31.0800	15.5400	11.1888	0.9	0.85	1000	-1000	1000	0.1	0.01	0	0	1;
	752	0.0	0.0	1.00	31.0800	15.5400	11.1888	0.9	0.85	1000	-1000	1000	0.1	0.01	0	0	1;
	753	0.0	0.0	1.00	31.0800	15.5400	11.1888	0.9	0.85	1000	-1000	1000	0.1	0.01	0	0	1;
	345	0.0	0.0	1.00	30.6450	15.3225	11.0322	0.9	0.85	1000	-1000	1000	0.1	0.01	0	0	1;
	2329	0.0	0.0	1.00	30.6300	15.3150	11.0268	0.9	0.85	1000	-1000	1000	0.1	0.01	0	0	1;
	2967	0.0	0.0	1.00	30.6000	15.3000	11.0160	0.9	0.85	1000	-1000	1000	0.1	0.01	0	0	1;
	2677	0.0	0.0	1.00	30.4800	15.2400	10.9728	0.9	0.85	1000	-1000	1000	0.1	0.01	0	0	1;
	1984	0.0	0.0	1.00	30.3450	15.1725	10.9242	0.9	0.85	1000	-1000	1000	0.1	0.01	0	0	1;
	2629	0.0	0.0	1.00	30.3300	15.1650	10.9188	0.9	0.85	1000	-1000	1000	0.1	0.01	0	0	1;
	2625	0.0	0.0	1.00	30.0150	15.0075	10.8054	0.9	0.85	1000	-1000	1000	0.1	0.01	0	0	1;
	316	0.0	0.0	1.00	30.0000	15.0000	10.8000	0.9	0.85	1000	-1000	1000	0.1	0.01	0	0	1;
	1451	0.0	0.0	1.00	30.0000	15.0000	10.8000	0.9	0.85	1000	-1000	1000	0.1	0.01	0	0	1;
	2375	0.0	0.0	1.00	29.9850	14.9925	10.7946	0.9	0.85	1000	-1000	1000	0.1	0.01	0	0	1;
	170	0.0	0.0	1.00	29.8650	14.9325	10.7514	0.9	0.85	1000	-1000	1000	0.1	0.01	0	0	1;
	3001	0.0	0.0	1.00	29.8350	14.9175	10.7406	0.9	0.85	1000	-1000	1000	0.1	0.01	0	0	1;
	1078	0.0	0.0	1.00	29.7900	14.8950	10.7244	0.9	0.85	1000	-1000	1000	0.1	0.01	0	0	1;
	736	0.0	0.0	1.00	29.5950	14.7975	10.6542	0.9	0.85	1000	-1000	1000	0.1	0.01	0	0	1;
	737	0.0	0.0	1.00	29.5950	14.7975	10.6542	0.9	0.85	1000	-1000	1000	0.1	0.01	0	0	1;
	762	0.0	0.0	1.00	29.5950	14.7975	10.6542	0.9	0.85	1000	-1000	1000	0.1	0.01	0	0	1;
	763	0.0	0.0	1.00	29.5950	14.7975	10.6542	0.9	0.85	1000	-1000	1000	0.1	0.01	0	0	1;
	2044	0.0	0.0	1.00	29.5500	14.7750	10.6380	0.9	0.85	1000	-1000	1000	0.1	0.01	0	0	1;
	290	0.0	0.0	1.00	29.2800	14.6400	10.5408	0.9	0.85	1000	-1000	1000	0.1	0.01	0	0	1;
	2347	0.0	0.0	1.00	29.2650	14.6325	10.5354	0.9	0.85	1000	-1000	1000	0.1	0.01	0	0	1;
	1668	0.0	0.0	1.00	29.2500	14.6250	10.5300	0.9	0.85	1000	-1000	1000	0.1	0.01	0	0	1;
	2674	0.0	0.0	1.00	29.2200	14.6100	10.5192	0.9	0.85	1000	-1000	1000	0.1	0.01	0	0	1;
	1982	0.0	0.0	1.00	29.0850	14.5425	10.4706	0.9	0.85	1000	-1000	1000	0.1	0.01	0	0	1;
	1412	0.0	0.0	1.00	29.0700	14.5350	10.4652	0.9	0.85	1000	-1000	1000	0.1	0.01	0	0	1;
	2586	0.0	0.0	1.00	28.9200	14.4600	10.4112	0.9	0.85	1000	-1000	1000	0.1	0.01	0	0	1;
	746	0.0	0.0	1.00	28.8600	14.4300	10.3896	0.9	0.85	1000	-1000	1000	0.1	0.01	0	0	1;
	747	0.0	0.0	1.00	28.8600	14.4300	10.3896	0.9	0.85	1000	-1000	1000	0.1	0.01	0	0	1;
	2300	0.0	0.0	1.00	28.8300	14.4150	10.3788	0.9	0.85	1000	-1000	1000	0.1	0.01	0	0	1;
	1289	0.0	0.0	1.00	28.8000	14.4000	10.3680	0.9	0.85	1000	-1000	1000	0.1	0.01	0	0	1;
	3069	0.0	0.0	1.00	28.7850	14.3925	10.3626	0.9	0.85	1000	-1000	1000	0.1	0.01	0	0	1;
	2289	0.0	0.0	1.00	28.7550	14.3775	10.3518	0.9	0.85	1000	-1000	1000	0.1	0.01	0	0	1;
	2512	0.0	0.0	1.00	28.7550	14.3775	10.3518	0.9	0.85	1000	-1000	1000	0.1	0.01	0	0	1;
	2846	0.0	0.0	1.00	28.5750	14.2875	10.2870	0.9	0.85	1000	-1000	1000	0.1	0.01	0	0	1;
	1656	0.0	0.0	1.00	28.3650	14.1825	10.2114	0.9	0.85	1000	-1000	1000	0.1	0.01	0	0	1;
	3066	0.0	0.0	1.00	28.3350	14.1675	10.2006	0.9	0.85	1000	-1000	1000	0.1	0.01	0	0	1;
	841	0.0	0.0	1.00	28.3050	14.1525	10.1898	0.9	0.85	1000	-1000	1000	0.1	0.01	0	0	1;
	3072	0.0	0.0	1.00	28.1850	14.0925	10.1466	0.9	0.85	1000	-1000	1000	0.1	0.01	0	0	1;
	2379	0.0	0.0	1.00	28.1550	14.0775	10.1358	0.9	0.85	1000	-1000	1000	0.1	0.01	0	0	1;
	1150	0.0	0.0	1.00	28.1400	14.0700	10.1304	0.9	0.85	1000	-1000	1000	0.1	0.01	0	0	1;
	2552	0.0	0.0	1.00	28.1250	14.0625	10.1250	0.9	0.85	1000	-1000	1000	0.1	0.01	0	0	1;
	719	0.0	0.0	1.00	28.1100	14.0550	10.1196	0.9	0.85	1000	-1000	1000	0.1	0.01	0	0	1;
	720	0.0	0.0	1.00	28.1100	14.0550	10.1196	0.9	0.85	1000	-1000	1000	0.1	0.01	0	0	1;
	2045	0.0	0.0	1.00	27.9450	13.9725	10.0602	0.9	0.85	1000	-1000	1000	0.1	0.01	0	0	1;
	2522	0.0	0.0	1.00	27.9150	13.9575	10.0494	0.9	0.85	1000	-1000	1000	0.1	0.01	0	0	1;
	1850	0.0	0.0	1.00	27.8850	13.9425	10.0386	0.9	0.85	1000	-1000	1000	0.1	0.01	0	0	1;
	330	0.0	0.0	1.00	27.8550	13.9275	10.0278	0.9	0.85	1000	-1000	1000	0.1	0.01	0	0	1;
	944	0.0	0.0	1.00	27.8550	13.9275	10.0278	0.9	0.85	1000	-1000	1000	0.1	0.01	0	0	1;
	370	0.0	0.0	1.00	27.7800	13.8900	10.0008	0.9	0.85	1000	-1000	1000	0.1	0.01	0	0	1;
	1869	0.0	0.0	1.00	27.7500	13.8750	9.9900	0.9	0.85	1000	-1000	1000	0.1	0.01	0	0	1;
	1313	0.0	0.0	1.00	27.7200	13.8600	9.9792	0.9	0.85	1000	-1000	1000	0.1	0.01	0	0	1;
	1448	0.0	0.0	1.00	27.6750	13.8375	9.9630	0.9	0.85	1000	-1000	1000	0.1	0.01	0	0	1;
...
];

%% branch data
%	fbus	tbus	r	x	b	rateA	rateB	rateC	ratio	angle	status	angmin	angmax
mpc.branch = [
	9	 11	 0.00064	 0.0305	 0.0	 400.0	 400.0	 400.0	 1.09271	 0.0	 1	 -30.0	 30.0;
	13	 12	 0.00069	 0.03946	 0.0	 250.0	 250.0	 250.0	 0.9999	 0.0	 1	 -30.0	 30.0;
	20	 18	 0.00088	 0.05709	 0.0	 330.0	 330.0	 330.0	 0.9999	 0.0	 1	 -30.0	 30.0;
	34	 33	 0.0007	 0.03652	 0.0	 250.0	 250.0	 250.0	 0.9999	 0.0	 1	 -30.0	 30.0;
	35	 37	 0.00036	 0.02519	 0.0	 500.0	 500.0	 500.0	 1.07313	 0.0	 1	 -30.0	 30.0;
	36	 38	 0.00036	 0.02519	 0.0	 500.0	 500.0	 500.0	 1.07313	 0.0	 1	 -30.0	 30.0;
	53	 54	 0.00034	 0.02097	 0.0	 500.0	 500.0	 500.0	 1.0755	 0.0	 1	 -30.0	 30.0;
	57	 59	 0.00034	 0.02097	 0.0	 500.0	 500.0	 500.0	 1.07313	 0.0	 1	 -30.0	 30.0;
	68	 70	 0.00081	 0.03	 0.0	 400.0	 400.0	 400.0	 1.10102	 0.0	 1	 -30.0	 30.0;
	105	 107	 0.00075	 0.02445	 -0.00832	 330.0	 330.0	 330.0	 1.039	 0.0	 1	 -30.0	 30.0;
	106	 108	 0.0004	 0.0253	 0.0	 500.0	 500.0	 500.0	 1.0457	 0.0	 1	 -30.0	 30.0;
	142	 145	 0.00053	 0.02875	 -0.016	 400.0	 400.0	 400.0	 1.06299	 0.0	 1	 -30.0	 30.0;
	170	 171	 0.00064	 0.0305	 0.0	 400.0	 400.0	 400.0	 1.07408	 0.0	 1	 -30.0	 30.0;
	177	 180	 0.00023	 0.023	 0.0	 500.0	 500.0	 500.0	 1.07426	 0.0	 1	 -30.0	 30.0;
	178	 181	 0.00023	 0.023	 0.0	 500.0	 500.0	 500.0	 1.07426	 0.0	 1	 -30.0	 30.0;
	185	 184	 0.00032	 0.04392	 0.0	 330.0	 330.0	 330.0	 0.9999	 0.0	 1	 -30.0	 30.0;
	188	 190	 0.0003	 0.02732	 0.0	 500.0	 500.0	 500.0	 1.10037	 0.0	 1	 -30.0	 30.0;
	195	 197	 0.00035	 0.02375	 0.0	 500.0	 500.0	 500.0	 1.08671	 0.0	 1	 -30.0	 30.0;
	208	 209	 0.00051	 0.0275	 0.0	 400.0	 400.0	 400.0	 1.07702	 0.0	 1	 -30.0	 30.0;
	213	 211	 0.00084	 0.06858	 0.0	 250.0	 250.0	 250.0	 0.9999	 0.0	 1	 -30.0	 30.0;
	216	 218	 0.00033	 0.02711	 0.0	 500.0	 500.0	 500.0	 1.08613	 0.0	 1	 -30.0	 30.0;
	220	 218	 0.00032	 0.0464	 0.0	 330.0	 330.0	 330.0	 0.9999	 0.0	 1	 -30.0	 30.0;
	227	 225	 0.00113	 0.05647	 0.0	 330.0	 330.0	 330.0	 0.9999	 0.0	 1	 -30.0	 30.0;
	224	 226	 0.00075	 0.02469	 -0.008	 330.0	 330.0	 330.0	 1.04544	 0.0	 1	 -30.0	 30.0;
	3116	 180	 0.00029	 0.00317	 0.09184	 773	 773	 773	 0.0	 0.0	 1	 -30.0	 30.0;
	3116	 181	 0.0003	 0.00326	 0.09536	 771	 771	 771	 0.0	 0.0	 1	 -30.0	 30.0;
	240	 82	 0.01475	 0.08595	 0.13036	 315	 315	 315	 0.0	 0.0	 1	 -30.0	 30.0;
	3114	 90	 0.01244	 0.06959	 0.10842	 309	 309	 309	 0.0	 0.0	 1	 -30.0	 30.0;
	3114	 120	 0.01207	 0.06905	 0.11519	 312	 312	 312	 0.0	 0.0	 1	 -30.0	 30.0;
	144	 3115	 0.00168	 0.01603	 0.51488	 724	 724	 724	 0.0	 0.0	 1	 -30.0	 30.0;
	3117	 169	 0.0018	 0.01616	 0.0484	 387	 387	 387	 0.0	 0.0	 1	 -30.0	 30.0;
	3117	 170	 0.0018	 0.01616	 0.0484	 387	 387	 387	 0.0	 0.0	 1	 -30.0	 30.0;
	3118	 61	 0.00223	 0.02209	 0.69011	 737	 737	 737	 0.0	 0.0	 1	 -30.0	 30.0;
	3118	 62	 0.00223	 0.02209	 0.69011	 737	 737	 737	 0.0	 0.0	 1	 -30.0	 30.0;
	97	 3113	 0.00293	 0.03054	 0.95472	 755	 755	 755	 0.0	 0.0	 1	 -30.0	 30.0;
	56	 28	 0.01174	 0.07014	 0.12689	 319	 319	 319	 0.0	 0.0	 1	 -30.0	 30.0;
...